
---------- Begin Simulation Statistics ----------
final_tick                               956500713500                       # Number of ticks from beginning of simulation (restored from checkpoints and never reset)
host_inst_rate                                 227926                       # Simulator instruction rate (inst/s)
host_mem_usage                                 839292                       # Number of bytes of host memory used
host_op_rate                                   412851                       # Simulator op (including micro ops) rate (op/s)
host_seconds                                   438.74                       # Real time elapsed on the host
host_tick_rate                             2180111715                       # Simulator tick rate (ticks/s)
sim_freq                                 1000000000000                       # Frequency of simulated ticks
sim_insts                                   100000001                       # Number of instructions simulated
sim_ops                                     181133978                       # Number of ops (including micro ops) simulated
sim_seconds                                  0.956501                       # Number of seconds simulated
sim_ticks                                956500713500                       # Number of ticks simulated
system.clk_domain.clock                          1000                       # Clock period in ticks
system.cpu.Branches                          13383360                       # Number of branches fetched
system.cpu.apic_clk_domain.clock                 8000                       # Clock period in ticks
system.cpu.committedInsts                   100000001                       # Number of instructions committed
system.cpu.committedOps                     181133978                       # Number of ops (including micro ops) committed
system.cpu.dcache.ReadReq_accesses::.cpu.data     14664116                       # number of ReadReq accesses(hits+misses)
system.cpu.dcache.ReadReq_accesses::total     14664116                       # number of ReadReq accesses(hits+misses)
system.cpu.dcache.ReadReq_avg_miss_latency::.cpu.data 227169.695044                       # average ReadReq miss latency
system.cpu.dcache.ReadReq_avg_miss_latency::total 227169.695044                       # average ReadReq miss latency
system.cpu.dcache.ReadReq_avg_mshr_miss_latency::.cpu.data 226169.695044                       # average ReadReq mshr miss latency
system.cpu.dcache.ReadReq_avg_mshr_miss_latency::total 226169.695044                       # average ReadReq mshr miss latency
system.cpu.dcache.ReadReq_hits::.cpu.data     14656246                       # number of ReadReq hits
system.cpu.dcache.ReadReq_hits::total        14656246                       # number of ReadReq hits
system.cpu.dcache.ReadReq_miss_latency::.cpu.data   1787825500                       # number of ReadReq miss cycles
system.cpu.dcache.ReadReq_miss_latency::total   1787825500                       # number of ReadReq miss cycles
system.cpu.dcache.ReadReq_miss_rate::.cpu.data     0.000537                       # miss rate for ReadReq accesses
system.cpu.dcache.ReadReq_miss_rate::total     0.000537                       # miss rate for ReadReq accesses
system.cpu.dcache.ReadReq_misses::.cpu.data         7870                       # number of ReadReq misses
system.cpu.dcache.ReadReq_misses::total          7870                       # number of ReadReq misses
system.cpu.dcache.ReadReq_mshr_miss_latency::.cpu.data   1779955500                       # number of ReadReq MSHR miss cycles
system.cpu.dcache.ReadReq_mshr_miss_latency::total   1779955500                       # number of ReadReq MSHR miss cycles
system.cpu.dcache.ReadReq_mshr_miss_rate::.cpu.data     0.000537                       # mshr miss rate for ReadReq accesses
system.cpu.dcache.ReadReq_mshr_miss_rate::total     0.000537                       # mshr miss rate for ReadReq accesses
system.cpu.dcache.ReadReq_mshr_misses::.cpu.data         7870                       # number of ReadReq MSHR misses
system.cpu.dcache.ReadReq_mshr_misses::total         7870                       # number of ReadReq MSHR misses
system.cpu.dcache.WriteReq_accesses::.cpu.data     70485123                       # number of WriteReq accesses(hits+misses)
system.cpu.dcache.WriteReq_accesses::total     70485123                       # number of WriteReq accesses(hits+misses)
system.cpu.dcache.WriteReq_avg_miss_latency::.cpu.data 89077.499171                       # average WriteReq miss latency
system.cpu.dcache.WriteReq_avg_miss_latency::total 89077.499171                       # average WriteReq miss latency
system.cpu.dcache.WriteReq_avg_mshr_miss_latency::.cpu.data 88077.499171                       # average WriteReq mshr miss latency
system.cpu.dcache.WriteReq_avg_mshr_miss_latency::total 88077.499171                       # average WriteReq mshr miss latency
system.cpu.dcache.WriteReq_hits::.cpu.data     62194273                       # number of WriteReq hits
system.cpu.dcache.WriteReq_hits::total       62194273                       # number of WriteReq hits
system.cpu.dcache.WriteReq_miss_latency::.cpu.data 738528184000                       # number of WriteReq miss cycles
system.cpu.dcache.WriteReq_miss_latency::total 738528184000                       # number of WriteReq miss cycles
system.cpu.dcache.WriteReq_miss_rate::.cpu.data     0.117626                       # miss rate for WriteReq accesses
system.cpu.dcache.WriteReq_miss_rate::total     0.117626                       # miss rate for WriteReq accesses
system.cpu.dcache.WriteReq_misses::.cpu.data      8290850                       # number of WriteReq misses
system.cpu.dcache.WriteReq_misses::total      8290850                       # number of WriteReq misses
system.cpu.dcache.WriteReq_mshr_miss_latency::.cpu.data 730237334000                       # number of WriteReq MSHR miss cycles
system.cpu.dcache.WriteReq_mshr_miss_latency::total 730237334000                       # number of WriteReq MSHR miss cycles
system.cpu.dcache.WriteReq_mshr_miss_rate::.cpu.data     0.117626                       # mshr miss rate for WriteReq accesses
system.cpu.dcache.WriteReq_mshr_miss_rate::total     0.117626                       # mshr miss rate for WriteReq accesses
system.cpu.dcache.WriteReq_mshr_misses::.cpu.data      8290850                       # number of WriteReq MSHR misses
system.cpu.dcache.WriteReq_mshr_misses::total      8290850                       # number of WriteReq MSHR misses
system.cpu.dcache.avg_blocked_cycles::no_mshrs          nan                       # average number of cycles each access was blocked
system.cpu.dcache.avg_blocked_cycles::no_targets          nan                       # average number of cycles each access was blocked
system.cpu.dcache.blocked::no_mshrs                 0                       # number of cycles access was blocked
system.cpu.dcache.blocked::no_targets               0                       # number of cycles access was blocked
system.cpu.dcache.blocked_cycles::no_mshrs            0                       # number of cycles access was blocked
system.cpu.dcache.blocked_cycles::no_targets            0                       # number of cycles access was blocked
system.cpu.dcache.demand_accesses::.cpu.data     85149239                       # number of demand (read+write) accesses
system.cpu.dcache.demand_accesses::total     85149239                       # number of demand (read+write) accesses
system.cpu.dcache.demand_avg_miss_latency::.cpu.data 89208.457389                       # average overall miss latency
system.cpu.dcache.demand_avg_miss_latency::total 89208.457389                       # average overall miss latency
system.cpu.dcache.demand_avg_mshr_miss_latency::.cpu.data 88208.457389                       # average overall mshr miss latency
system.cpu.dcache.demand_avg_mshr_miss_latency::total 88208.457389                       # average overall mshr miss latency
system.cpu.dcache.demand_hits::.cpu.data     76850519                       # number of demand (read+write) hits
system.cpu.dcache.demand_hits::total         76850519                       # number of demand (read+write) hits
system.cpu.dcache.demand_miss_latency::.cpu.data 740316009500                       # number of demand (read+write) miss cycles
system.cpu.dcache.demand_miss_latency::total 740316009500                       # number of demand (read+write) miss cycles
system.cpu.dcache.demand_miss_rate::.cpu.data     0.097461                       # miss rate for demand accesses
system.cpu.dcache.demand_miss_rate::total     0.097461                       # miss rate for demand accesses
system.cpu.dcache.demand_misses::.cpu.data      8298720                       # number of demand (read+write) misses
system.cpu.dcache.demand_misses::total        8298720                       # number of demand (read+write) misses
system.cpu.dcache.demand_mshr_miss_latency::.cpu.data 732017289500                       # number of demand (read+write) MSHR miss cycles
system.cpu.dcache.demand_mshr_miss_latency::total 732017289500                       # number of demand (read+write) MSHR miss cycles
system.cpu.dcache.demand_mshr_miss_rate::.cpu.data     0.097461                       # mshr miss rate for demand accesses
system.cpu.dcache.demand_mshr_miss_rate::total     0.097461                       # mshr miss rate for demand accesses
system.cpu.dcache.demand_mshr_misses::.cpu.data      8298720                       # number of demand (read+write) MSHR misses
system.cpu.dcache.demand_mshr_misses::total      8298720                       # number of demand (read+write) MSHR misses
system.cpu.dcache.overall_accesses::.cpu.data     85149239                       # number of overall (read+write) accesses
system.cpu.dcache.overall_accesses::total     85149239                       # number of overall (read+write) accesses
system.cpu.dcache.overall_avg_miss_latency::.cpu.data 89208.457389                       # average overall miss latency
system.cpu.dcache.overall_avg_miss_latency::total 89208.457389                       # average overall miss latency
system.cpu.dcache.overall_avg_mshr_miss_latency::.cpu.data 88208.457389                       # average overall mshr miss latency
system.cpu.dcache.overall_avg_mshr_miss_latency::total 88208.457389                       # average overall mshr miss latency
system.cpu.dcache.overall_hits::.cpu.data     76850519                       # number of overall hits
system.cpu.dcache.overall_hits::total        76850519                       # number of overall hits
system.cpu.dcache.overall_miss_latency::.cpu.data 740316009500                       # number of overall miss cycles
system.cpu.dcache.overall_miss_latency::total 740316009500                       # number of overall miss cycles
system.cpu.dcache.overall_miss_rate::.cpu.data     0.097461                       # miss rate for overall accesses
system.cpu.dcache.overall_miss_rate::total     0.097461                       # miss rate for overall accesses
system.cpu.dcache.overall_misses::.cpu.data      8298720                       # number of overall misses
system.cpu.dcache.overall_misses::total       8298720                       # number of overall misses
system.cpu.dcache.overall_mshr_miss_latency::.cpu.data 732017289500                       # number of overall MSHR miss cycles
system.cpu.dcache.overall_mshr_miss_latency::total 732017289500                       # number of overall MSHR miss cycles
system.cpu.dcache.overall_mshr_miss_rate::.cpu.data     0.097461                       # mshr miss rate for overall accesses
system.cpu.dcache.overall_mshr_miss_rate::total     0.097461                       # mshr miss rate for overall accesses
system.cpu.dcache.overall_mshr_misses::.cpu.data      8298720                       # number of overall MSHR misses
system.cpu.dcache.overall_mshr_misses::total      8298720                       # number of overall MSHR misses
system.cpu.dcache.pwrStateResidencyTicks::UNDEFINED 956500713500                       # Cumulative time (in ticks) in various power states
system.cpu.dcache.replacements                8296672                       # number of replacements
system.cpu.dcache.tags.age_task_id_blocks_1024::0            4                       # Occupied blocks per task id
system.cpu.dcache.tags.age_task_id_blocks_1024::1            8                       # Occupied blocks per task id
system.cpu.dcache.tags.age_task_id_blocks_1024::2           85                       # Occupied blocks per task id
system.cpu.dcache.tags.age_task_id_blocks_1024::3          393                       # Occupied blocks per task id
system.cpu.dcache.tags.age_task_id_blocks_1024::4         1558                       # Occupied blocks per task id
system.cpu.dcache.tags.avg_refs             10.260527                       # Average number of references to valid blocks.
system.cpu.dcache.tags.data_accesses        178597198                       # Number of data accesses
system.cpu.dcache.tags.occ_blocks::.cpu.data  2043.602122                       # Average occupied blocks per requestor
system.cpu.dcache.tags.occ_percent::.cpu.data     0.997853                       # Average percentage of cache occupancy
system.cpu.dcache.tags.occ_percent::total     0.997853                       # Average percentage of cache occupancy
system.cpu.dcache.tags.occ_task_id_blocks::1024         2048                       # Occupied blocks per task id
system.cpu.dcache.tags.occ_task_id_percent::1024            1                       # Percentage of cache occupancy per task id
system.cpu.dcache.tags.pwrStateResidencyTicks::UNDEFINED 956500713500                       # Cumulative time (in ticks) in various power states
system.cpu.dcache.tags.sampled_refs           8298720                       # Sample count of references to valid blocks.
system.cpu.dcache.tags.tag_accesses         178597198                       # Number of tag accesses
system.cpu.dcache.tags.tagsinuse          2043.602122                       # Cycle average of tags in use
system.cpu.dcache.tags.total_refs            85149239                       # Total number of references to valid blocks.
system.cpu.dcache.tags.warmup_cycle            181500                       # Cycle when the warmup percentage was hit.
system.cpu.dcache.writebacks::.writebacks      8294648                       # number of writebacks
system.cpu.dcache.writebacks::total           8294648                       # number of writebacks
system.cpu.dtb.pwrStateResidencyTicks::UNDEFINED 956500713500                       # Cumulative time (in ticks) in various power states
system.cpu.dtb.rdAccesses                    14664116                       # TLB accesses on read requests
system.cpu.dtb.rdMisses                         12989                       # TLB misses on read requests
system.cpu.dtb.walker.pwrStateResidencyTicks::UNDEFINED 956500713500                       # Cumulative time (in ticks) in various power states
system.cpu.dtb.wrAccesses                    70485123                       # TLB accesses on write requests
system.cpu.dtb.wrMisses                        130894                       # TLB misses on write requests
system.cpu.dtb_walker_cache.avg_blocked_cycles::no_mshrs          nan                       # average number of cycles each access was blocked
system.cpu.dtb_walker_cache.avg_blocked_cycles::no_targets          nan                       # average number of cycles each access was blocked
system.cpu.dtb_walker_cache.blocked::no_mshrs            0                       # number of cycles access was blocked
system.cpu.dtb_walker_cache.blocked::no_targets            0                       # number of cycles access was blocked
system.cpu.dtb_walker_cache.blocked_cycles::no_mshrs            0                       # number of cycles access was blocked
system.cpu.dtb_walker_cache.blocked_cycles::no_targets            0                       # number of cycles access was blocked
system.cpu.dtb_walker_cache.pwrStateResidencyTicks::UNDEFINED 956500713500                       # Cumulative time (in ticks) in various power states
system.cpu.dtb_walker_cache.replacements            0                       # number of replacements
system.cpu.dtb_walker_cache.tags.avg_refs          nan                       # Average number of references to valid blocks.
system.cpu.dtb_walker_cache.tags.data_accesses            0                       # Number of data accesses
system.cpu.dtb_walker_cache.tags.pwrStateResidencyTicks::UNDEFINED 956500713500                       # Cumulative time (in ticks) in various power states
system.cpu.dtb_walker_cache.tags.sampled_refs            0                       # Sample count of references to valid blocks.
system.cpu.dtb_walker_cache.tags.tag_accesses            0                       # Number of tag accesses
system.cpu.dtb_walker_cache.tags.tagsinuse            0                       # Cycle average of tags in use
system.cpu.dtb_walker_cache.tags.total_refs            0                       # Total number of references to valid blocks.
system.cpu.dtb_walker_cache.tags.warmup_cycle            0                       # Cycle when the warmup percentage was hit.
system.cpu.icache.ReadReq_accesses::.cpu.inst    139152120                       # number of ReadReq accesses(hits+misses)
system.cpu.icache.ReadReq_accesses::total    139152120                       # number of ReadReq accesses(hits+misses)
system.cpu.icache.ReadReq_avg_miss_latency::.cpu.inst 84296.939242                       # average ReadReq miss latency
system.cpu.icache.ReadReq_avg_miss_latency::total 84296.939242                       # average ReadReq miss latency
system.cpu.icache.ReadReq_avg_mshr_miss_latency::.cpu.inst 83296.939242                       # average ReadReq mshr miss latency
system.cpu.icache.ReadReq_avg_mshr_miss_latency::total 83296.939242                       # average ReadReq mshr miss latency
system.cpu.icache.ReadReq_hits::.cpu.inst    139149931                       # number of ReadReq hits
system.cpu.icache.ReadReq_hits::total       139149931                       # number of ReadReq hits
system.cpu.icache.ReadReq_miss_latency::.cpu.inst    184526000                       # number of ReadReq miss cycles
system.cpu.icache.ReadReq_miss_latency::total    184526000                       # number of ReadReq miss cycles
system.cpu.icache.ReadReq_miss_rate::.cpu.inst     0.000016                       # miss rate for ReadReq accesses
system.cpu.icache.ReadReq_miss_rate::total     0.000016                       # miss rate for ReadReq accesses
system.cpu.icache.ReadReq_misses::.cpu.inst         2189                       # number of ReadReq misses
system.cpu.icache.ReadReq_misses::total          2189                       # number of ReadReq misses
system.cpu.icache.ReadReq_mshr_miss_latency::.cpu.inst    182337000                       # number of ReadReq MSHR miss cycles
system.cpu.icache.ReadReq_mshr_miss_latency::total    182337000                       # number of ReadReq MSHR miss cycles
system.cpu.icache.ReadReq_mshr_miss_rate::.cpu.inst     0.000016                       # mshr miss rate for ReadReq accesses
system.cpu.icache.ReadReq_mshr_miss_rate::total     0.000016                       # mshr miss rate for ReadReq accesses
system.cpu.icache.ReadReq_mshr_misses::.cpu.inst         2189                       # number of ReadReq MSHR misses
system.cpu.icache.ReadReq_mshr_misses::total         2189                       # number of ReadReq MSHR misses
system.cpu.icache.avg_blocked_cycles::no_mshrs          nan                       # average number of cycles each access was blocked
system.cpu.icache.avg_blocked_cycles::no_targets          nan                       # average number of cycles each access was blocked
system.cpu.icache.blocked::no_mshrs                 0                       # number of cycles access was blocked
system.cpu.icache.blocked::no_targets               0                       # number of cycles access was blocked
system.cpu.icache.blocked_cycles::no_mshrs            0                       # number of cycles access was blocked
system.cpu.icache.blocked_cycles::no_targets            0                       # number of cycles access was blocked
system.cpu.icache.demand_accesses::.cpu.inst    139152120                       # number of demand (read+write) accesses
system.cpu.icache.demand_accesses::total    139152120                       # number of demand (read+write) accesses
system.cpu.icache.demand_avg_miss_latency::.cpu.inst 84296.939242                       # average overall miss latency
system.cpu.icache.demand_avg_miss_latency::total 84296.939242                       # average overall miss latency
system.cpu.icache.demand_avg_mshr_miss_latency::.cpu.inst 83296.939242                       # average overall mshr miss latency
system.cpu.icache.demand_avg_mshr_miss_latency::total 83296.939242                       # average overall mshr miss latency
system.cpu.icache.demand_hits::.cpu.inst    139149931                       # number of demand (read+write) hits
system.cpu.icache.demand_hits::total        139149931                       # number of demand (read+write) hits
system.cpu.icache.demand_miss_latency::.cpu.inst    184526000                       # number of demand (read+write) miss cycles
system.cpu.icache.demand_miss_latency::total    184526000                       # number of demand (read+write) miss cycles
system.cpu.icache.demand_miss_rate::.cpu.inst     0.000016                       # miss rate for demand accesses
system.cpu.icache.demand_miss_rate::total     0.000016                       # miss rate for demand accesses
system.cpu.icache.demand_misses::.cpu.inst         2189                       # number of demand (read+write) misses
system.cpu.icache.demand_misses::total           2189                       # number of demand (read+write) misses
system.cpu.icache.demand_mshr_miss_latency::.cpu.inst    182337000                       # number of demand (read+write) MSHR miss cycles
system.cpu.icache.demand_mshr_miss_latency::total    182337000                       # number of demand (read+write) MSHR miss cycles
system.cpu.icache.demand_mshr_miss_rate::.cpu.inst     0.000016                       # mshr miss rate for demand accesses
system.cpu.icache.demand_mshr_miss_rate::total     0.000016                       # mshr miss rate for demand accesses
system.cpu.icache.demand_mshr_misses::.cpu.inst         2189                       # number of demand (read+write) MSHR misses
system.cpu.icache.demand_mshr_misses::total         2189                       # number of demand (read+write) MSHR misses
system.cpu.icache.overall_accesses::.cpu.inst    139152120                       # number of overall (read+write) accesses
system.cpu.icache.overall_accesses::total    139152120                       # number of overall (read+write) accesses
system.cpu.icache.overall_avg_miss_latency::.cpu.inst 84296.939242                       # average overall miss latency
system.cpu.icache.overall_avg_miss_latency::total 84296.939242                       # average overall miss latency
system.cpu.icache.overall_avg_mshr_miss_latency::.cpu.inst 83296.939242                       # average overall mshr miss latency
system.cpu.icache.overall_avg_mshr_miss_latency::total 83296.939242                       # average overall mshr miss latency
system.cpu.icache.overall_hits::.cpu.inst    139149931                       # number of overall hits
system.cpu.icache.overall_hits::total       139149931                       # number of overall hits
system.cpu.icache.overall_miss_latency::.cpu.inst    184526000                       # number of overall miss cycles
system.cpu.icache.overall_miss_latency::total    184526000                       # number of overall miss cycles
system.cpu.icache.overall_miss_rate::.cpu.inst     0.000016                       # miss rate for overall accesses
system.cpu.icache.overall_miss_rate::total     0.000016                       # miss rate for overall accesses
system.cpu.icache.overall_misses::.cpu.inst         2189                       # number of overall misses
system.cpu.icache.overall_misses::total          2189                       # number of overall misses
system.cpu.icache.overall_mshr_miss_latency::.cpu.inst    182337000                       # number of overall MSHR miss cycles
system.cpu.icache.overall_mshr_miss_latency::total    182337000                       # number of overall MSHR miss cycles
system.cpu.icache.overall_mshr_miss_rate::.cpu.inst     0.000016                       # mshr miss rate for overall accesses
system.cpu.icache.overall_mshr_miss_rate::total     0.000016                       # mshr miss rate for overall accesses
system.cpu.icache.overall_mshr_misses::.cpu.inst         2189                       # number of overall MSHR misses
system.cpu.icache.overall_mshr_misses::total         2189                       # number of overall MSHR misses
system.cpu.icache.pwrStateResidencyTicks::UNDEFINED 956500713500                       # Cumulative time (in ticks) in various power states
system.cpu.icache.replacements                    789                       # number of replacements
system.cpu.icache.tags.age_task_id_blocks_1024::3            1                       # Occupied blocks per task id
system.cpu.icache.tags.age_task_id_blocks_1024::4         1399                       # Occupied blocks per task id
system.cpu.icache.tags.avg_refs          63568.807675                       # Average number of references to valid blocks.
system.cpu.icache.tags.data_accesses        278306429                       # Number of data accesses
system.cpu.icache.tags.occ_blocks::.cpu.inst   618.711887                       # Average occupied blocks per requestor
system.cpu.icache.tags.occ_percent::.cpu.inst     0.302105                       # Average percentage of cache occupancy
system.cpu.icache.tags.occ_percent::total     0.302105                       # Average percentage of cache occupancy
system.cpu.icache.tags.occ_task_id_blocks::1024         1400                       # Occupied blocks per task id
system.cpu.icache.tags.occ_task_id_percent::1024     0.683594                       # Percentage of cache occupancy per task id
system.cpu.icache.tags.pwrStateResidencyTicks::UNDEFINED 956500713500                       # Cumulative time (in ticks) in various power states
system.cpu.icache.tags.sampled_refs              2189                       # Sample count of references to valid blocks.
system.cpu.icache.tags.tag_accesses         278306429                       # Number of tag accesses
system.cpu.icache.tags.tagsinuse           618.711887                       # Cycle average of tags in use
system.cpu.icache.tags.total_refs           139152120                       # Total number of references to valid blocks.
system.cpu.icache.tags.warmup_cycle             87500                       # Cycle when the warmup percentage was hit.
system.cpu.icache.writebacks::.writebacks          789                       # number of writebacks
system.cpu.icache.writebacks::total               789                       # number of writebacks
system.cpu.idle_fraction                            0                       # Percentage of idle cycles
system.cpu.interrupts.pwrStateResidencyTicks::UNDEFINED 956500713500                       # Cumulative time (in ticks) in various power states
system.cpu.itb.pwrStateResidencyTicks::UNDEFINED 956500713500                       # Cumulative time (in ticks) in various power states
system.cpu.itb.rdAccesses                           0                       # TLB accesses on read requests
system.cpu.itb.rdMisses                             0                       # TLB misses on read requests
system.cpu.itb.walker.pwrStateResidencyTicks::UNDEFINED 956500713500                       # Cumulative time (in ticks) in various power states
system.cpu.itb.wrAccesses                   139152120                       # TLB accesses on write requests
system.cpu.itb.wrMisses                            75                       # TLB misses on write requests
system.cpu.itb_walker_cache.avg_blocked_cycles::no_mshrs          nan                       # average number of cycles each access was blocked
system.cpu.itb_walker_cache.avg_blocked_cycles::no_targets          nan                       # average number of cycles each access was blocked
system.cpu.itb_walker_cache.blocked::no_mshrs            0                       # number of cycles access was blocked
system.cpu.itb_walker_cache.blocked::no_targets            0                       # number of cycles access was blocked
system.cpu.itb_walker_cache.blocked_cycles::no_mshrs            0                       # number of cycles access was blocked
system.cpu.itb_walker_cache.blocked_cycles::no_targets            0                       # number of cycles access was blocked
system.cpu.itb_walker_cache.pwrStateResidencyTicks::UNDEFINED 956500713500                       # Cumulative time (in ticks) in various power states
system.cpu.itb_walker_cache.replacements            0                       # number of replacements
system.cpu.itb_walker_cache.tags.avg_refs          nan                       # Average number of references to valid blocks.
system.cpu.itb_walker_cache.tags.data_accesses            0                       # Number of data accesses
system.cpu.itb_walker_cache.tags.pwrStateResidencyTicks::UNDEFINED 956500713500                       # Cumulative time (in ticks) in various power states
system.cpu.itb_walker_cache.tags.sampled_refs            0                       # Sample count of references to valid blocks.
system.cpu.itb_walker_cache.tags.tag_accesses            0                       # Number of tag accesses
system.cpu.itb_walker_cache.tags.tagsinuse            0                       # Cycle average of tags in use
system.cpu.itb_walker_cache.tags.total_refs            0                       # Total number of references to valid blocks.
system.cpu.itb_walker_cache.tags.warmup_cycle            0                       # Cycle when the warmup percentage was hit.
system.cpu.not_idle_fraction                        1                       # Percentage of non-idle cycles
system.cpu.numCycles                       1913001427                       # number of cpu cycles simulated
system.cpu.numWorkItemsCompleted                    0                       # number of work items this cpu completed
system.cpu.numWorkItemsStarted                      0                       # number of work items this cpu started
system.cpu.num_busy_cycles                 1913001427                       # Number of busy cycles
system.cpu.num_cc_register_reads             66390676                       # number of times the CC registers were read
system.cpu.num_cc_register_writes            58331008                       # number of times the CC registers were written
system.cpu.num_conditional_control_insts     12357318                       # number of instructions that are conditional controls
system.cpu.num_fp_alu_accesses               66079645                       # Number of float alu accesses
system.cpu.num_fp_insts                      66079645                       # number of float instructions
system.cpu.num_fp_register_reads             66107541                       # number of times the floating registers were read
system.cpu.num_fp_register_writes               34696                       # number of times the floating registers were written
system.cpu.num_func_calls                      481409                       # number of times a function call or return occured
system.cpu.num_idle_cycles                          0                       # Number of idle cycles
system.cpu.num_int_alu_accesses             180945640                       # Number of integer alu accesses
system.cpu.num_int_insts                    180945640                       # number of integer instructions
system.cpu.num_int_register_reads           393189365                       # number of times the integer registers were read
system.cpu.num_int_register_writes           97341166                       # number of times the integer registers were written
system.cpu.num_load_insts                    14663800                       # Number of load instructions
system.cpu.num_mem_refs                      85148913                       # number of memory refs
system.cpu.num_store_insts                   70485113                       # Number of store instructions
system.cpu.num_vec_alu_accesses                     0                       # Number of vector alu accesses
system.cpu.num_vec_insts                            0                       # number of vector instructions
system.cpu.num_vec_register_reads                   0                       # number of times the vector registers were read
system.cpu.num_vec_register_writes                  0                       # number of times the vector registers were written
system.cpu.op_class::No_OpClass                 17650      0.01%      0.01% # Class of executed instruction
system.cpu.op_class::IntAlu                  95763297     52.87%     52.88% # Class of executed instruction
system.cpu.op_class::IntMult                    94292      0.05%     52.93% # Class of executed instruction
system.cpu.op_class::IntDiv                     79926      0.04%     52.97% # Class of executed instruction
system.cpu.op_class::FloatAdd                    2214      0.00%     52.98% # Class of executed instruction
system.cpu.op_class::FloatCmp                       0      0.00%     52.98% # Class of executed instruction
system.cpu.op_class::FloatCvt                       0      0.00%     52.98% # Class of executed instruction
system.cpu.op_class::FloatMult                      0      0.00%     52.98% # Class of executed instruction
system.cpu.op_class::FloatMultAcc                   0      0.00%     52.98% # Class of executed instruction
system.cpu.op_class::FloatDiv                       0      0.00%     52.98% # Class of executed instruction
system.cpu.op_class::FloatMisc                      0      0.00%     52.98% # Class of executed instruction
system.cpu.op_class::FloatSqrt                      0      0.00%     52.98% # Class of executed instruction
system.cpu.op_class::SimdAdd                        0      0.00%     52.98% # Class of executed instruction
system.cpu.op_class::SimdAddAcc                     0      0.00%     52.98% # Class of executed instruction
system.cpu.op_class::SimdAlu                     4490      0.00%     52.98% # Class of executed instruction
system.cpu.op_class::SimdCmp                       12      0.00%     52.98% # Class of executed instruction
system.cpu.op_class::SimdCvt                     5116      0.00%     52.98% # Class of executed instruction
system.cpu.op_class::SimdMisc                   18029      0.01%     52.99% # Class of executed instruction
system.cpu.op_class::SimdMult                       0      0.00%     52.99% # Class of executed instruction
system.cpu.op_class::SimdMultAcc                    0      0.00%     52.99% # Class of executed instruction
system.cpu.op_class::SimdShift                      0      0.00%     52.99% # Class of executed instruction
system.cpu.op_class::SimdShiftAcc                   0      0.00%     52.99% # Class of executed instruction
system.cpu.op_class::SimdDiv                        0      0.00%     52.99% # Class of executed instruction
system.cpu.op_class::SimdSqrt                       0      0.00%     52.99% # Class of executed instruction
system.cpu.op_class::SimdFloatAdd                   0      0.00%     52.99% # Class of executed instruction
system.cpu.op_class::SimdFloatAlu                   0      0.00%     52.99% # Class of executed instruction
system.cpu.op_class::SimdFloatCmp                   0      0.00%     52.99% # Class of executed instruction
system.cpu.op_class::SimdFloatCvt                  29      0.00%     52.99% # Class of executed instruction
system.cpu.op_class::SimdFloatDiv                   5      0.00%     52.99% # Class of executed instruction
system.cpu.op_class::SimdFloatMisc                  0      0.00%     52.99% # Class of executed instruction
system.cpu.op_class::SimdFloatMult                  5      0.00%     52.99% # Class of executed instruction
system.cpu.op_class::SimdFloatMultAcc               0      0.00%     52.99% # Class of executed instruction
system.cpu.op_class::SimdFloatSqrt                  0      0.00%     52.99% # Class of executed instruction
system.cpu.op_class::SimdReduceAdd                  0      0.00%     52.99% # Class of executed instruction
system.cpu.op_class::SimdReduceAlu                  0      0.00%     52.99% # Class of executed instruction
system.cpu.op_class::SimdReduceCmp                  0      0.00%     52.99% # Class of executed instruction
system.cpu.op_class::SimdFloatReduceAdd             0      0.00%     52.99% # Class of executed instruction
system.cpu.op_class::SimdFloatReduceCmp             0      0.00%     52.99% # Class of executed instruction
system.cpu.op_class::SimdAes                        0      0.00%     52.99% # Class of executed instruction
system.cpu.op_class::SimdAesMix                     0      0.00%     52.99% # Class of executed instruction
system.cpu.op_class::SimdSha1Hash                   0      0.00%     52.99% # Class of executed instruction
system.cpu.op_class::SimdSha1Hash2                  0      0.00%     52.99% # Class of executed instruction
system.cpu.op_class::SimdSha256Hash                 0      0.00%     52.99% # Class of executed instruction
system.cpu.op_class::SimdSha256Hash2                0      0.00%     52.99% # Class of executed instruction
system.cpu.op_class::SimdShaSigma2                  0      0.00%     52.99% # Class of executed instruction
system.cpu.op_class::SimdShaSigma3                  0      0.00%     52.99% # Class of executed instruction
system.cpu.op_class::SimdPredAlu                    0      0.00%     52.99% # Class of executed instruction
system.cpu.op_class::MemRead                 14661131      8.09%     61.09% # Class of executed instruction
system.cpu.op_class::MemWrite                 4442793      2.45%     63.54% # Class of executed instruction
system.cpu.op_class::FloatMemRead                2669      0.00%     63.54% # Class of executed instruction
system.cpu.op_class::FloatMemWrite           66042320     36.46%    100.00% # Class of executed instruction
system.cpu.op_class::IprAccess                      0      0.00%    100.00% # Class of executed instruction
system.cpu.op_class::InstPrefetch                   0      0.00%    100.00% # Class of executed instruction
system.cpu.op_class::total                  181133978                       # Class of executed instruction
system.cpu.pwrStateResidencyTicks::ON    956500713500                       # Cumulative time (in ticks) in various power states
system.cpu.workload.numSyscalls                   146                       # Number of system calls
system.cpu_clk_domain.clock                       500                       # Clock period in ticks
system.cpu_voltage_domain.voltage                   1                       # Voltage in Volts
system.l2.CleanEvict_mshr_miss_rate::.writebacks          inf                       # mshr miss rate for CleanEvict accesses
system.l2.CleanEvict_mshr_miss_rate::total          inf                       # mshr miss rate for CleanEvict accesses
system.l2.CleanEvict_mshr_misses::.writebacks           90                       # number of CleanEvict MSHR misses
system.l2.CleanEvict_mshr_misses::total            90                       # number of CleanEvict MSHR misses
system.l2.ReadCleanReq_accesses::.cpu.inst         2189                       # number of ReadCleanReq accesses(hits+misses)
system.l2.ReadCleanReq_accesses::total           2189                       # number of ReadCleanReq accesses(hits+misses)
system.l2.ReadCleanReq_avg_miss_latency::.cpu.inst 109519.987310                       # average ReadCleanReq miss latency
system.l2.ReadCleanReq_avg_miss_latency::total 109519.987310                       # average ReadCleanReq miss latency
system.l2.ReadCleanReq_avg_mshr_miss_latency::.cpu.inst 99519.987310                       # average ReadCleanReq mshr miss latency
system.l2.ReadCleanReq_avg_mshr_miss_latency::total 99519.987310                       # average ReadCleanReq mshr miss latency
system.l2.ReadCleanReq_hits::.cpu.inst            613                       # number of ReadCleanReq hits
system.l2.ReadCleanReq_hits::total                613                       # number of ReadCleanReq hits
system.l2.ReadCleanReq_miss_latency::.cpu.inst    172603500                       # number of ReadCleanReq miss cycles
system.l2.ReadCleanReq_miss_latency::total    172603500                       # number of ReadCleanReq miss cycles
system.l2.ReadCleanReq_miss_rate::.cpu.inst     0.719963                       # miss rate for ReadCleanReq accesses
system.l2.ReadCleanReq_miss_rate::total      0.719963                       # miss rate for ReadCleanReq accesses
system.l2.ReadCleanReq_misses::.cpu.inst         1576                       # number of ReadCleanReq misses
system.l2.ReadCleanReq_misses::total             1576                       # number of ReadCleanReq misses
system.l2.ReadCleanReq_mshr_miss_latency::.cpu.inst    156843500                       # number of ReadCleanReq MSHR miss cycles
system.l2.ReadCleanReq_mshr_miss_latency::total    156843500                       # number of ReadCleanReq MSHR miss cycles
system.l2.ReadCleanReq_mshr_miss_rate::.cpu.inst     0.719963                       # mshr miss rate for ReadCleanReq accesses
system.l2.ReadCleanReq_mshr_miss_rate::total     0.719963                       # mshr miss rate for ReadCleanReq accesses
system.l2.ReadCleanReq_mshr_misses::.cpu.inst         1576                       # number of ReadCleanReq MSHR misses
system.l2.ReadCleanReq_mshr_misses::total         1576                       # number of ReadCleanReq MSHR misses
system.l2.ReadExReq_accesses::.cpu.data       8290850                       # number of ReadExReq accesses(hits+misses)
system.l2.ReadExReq_accesses::total           8290850                       # number of ReadExReq accesses(hits+misses)
system.l2.ReadExReq_avg_miss_latency::.cpu.data 86588.099019                       # average ReadExReq miss latency
system.l2.ReadExReq_avg_miss_latency::total 86588.099019                       # average ReadExReq miss latency
system.l2.ReadExReq_avg_mshr_miss_latency::.cpu.data 76588.099019                       # average ReadExReq mshr miss latency
system.l2.ReadExReq_avg_mshr_miss_latency::total 76588.099019                       # average ReadExReq mshr miss latency
system.l2.ReadExReq_hits::.cpu.data              1155                       # number of ReadExReq hits
system.l2.ReadExReq_hits::total                  1155                       # number of ReadExReq hits
system.l2.ReadExReq_miss_latency::.cpu.data 717788931500                       # number of ReadExReq miss cycles
system.l2.ReadExReq_miss_latency::total  717788931500                       # number of ReadExReq miss cycles
system.l2.ReadExReq_miss_rate::.cpu.data     0.999861                       # miss rate for ReadExReq accesses
system.l2.ReadExReq_miss_rate::total         0.999861                       # miss rate for ReadExReq accesses
system.l2.ReadExReq_misses::.cpu.data         8289695                       # number of ReadExReq misses
system.l2.ReadExReq_misses::total             8289695                       # number of ReadExReq misses
system.l2.ReadExReq_mshr_miss_latency::.cpu.data 634891981500                       # number of ReadExReq MSHR miss cycles
system.l2.ReadExReq_mshr_miss_latency::total 634891981500                       # number of ReadExReq MSHR miss cycles
system.l2.ReadExReq_mshr_miss_rate::.cpu.data     0.999861                       # mshr miss rate for ReadExReq accesses
system.l2.ReadExReq_mshr_miss_rate::total     0.999861                       # mshr miss rate for ReadExReq accesses
system.l2.ReadExReq_mshr_misses::.cpu.data      8289695                       # number of ReadExReq MSHR misses
system.l2.ReadExReq_mshr_misses::total        8289695                       # number of ReadExReq MSHR misses
system.l2.ReadSharedReq_accesses::.cpu.data         7870                       # number of ReadSharedReq accesses(hits+misses)
system.l2.ReadSharedReq_accesses::total          7870                       # number of ReadSharedReq accesses(hits+misses)
system.l2.ReadSharedReq_avg_miss_latency::.cpu.data 323269.159399                       # average ReadSharedReq miss latency
system.l2.ReadSharedReq_avg_miss_latency::total 323269.159399                       # average ReadSharedReq miss latency
system.l2.ReadSharedReq_avg_mshr_miss_latency::.cpu.data 313269.159399                       # average ReadSharedReq mshr miss latency
system.l2.ReadSharedReq_avg_mshr_miss_latency::total 313269.159399                       # average ReadSharedReq mshr miss latency
system.l2.ReadSharedReq_hits::.cpu.data          2481                       # number of ReadSharedReq hits
system.l2.ReadSharedReq_hits::total              2481                       # number of ReadSharedReq hits
system.l2.ReadSharedReq_miss_latency::.cpu.data   1742097500                       # number of ReadSharedReq miss cycles
system.l2.ReadSharedReq_miss_latency::total   1742097500                       # number of ReadSharedReq miss cycles
system.l2.ReadSharedReq_miss_rate::.cpu.data     0.684752                       # miss rate for ReadSharedReq accesses
system.l2.ReadSharedReq_miss_rate::total     0.684752                       # miss rate for ReadSharedReq accesses
system.l2.ReadSharedReq_misses::.cpu.data         5389                       # number of ReadSharedReq misses
system.l2.ReadSharedReq_misses::total            5389                       # number of ReadSharedReq misses
system.l2.ReadSharedReq_mshr_miss_latency::.cpu.data   1688207500                       # number of ReadSharedReq MSHR miss cycles
system.l2.ReadSharedReq_mshr_miss_latency::total   1688207500                       # number of ReadSharedReq MSHR miss cycles
system.l2.ReadSharedReq_mshr_miss_rate::.cpu.data     0.684752                       # mshr miss rate for ReadSharedReq accesses
system.l2.ReadSharedReq_mshr_miss_rate::total     0.684752                       # mshr miss rate for ReadSharedReq accesses
system.l2.ReadSharedReq_mshr_misses::.cpu.data         5389                       # number of ReadSharedReq MSHR misses
system.l2.ReadSharedReq_mshr_misses::total         5389                       # number of ReadSharedReq MSHR misses
system.l2.WritebackClean_accesses::.writebacks          789                       # number of WritebackClean accesses(hits+misses)
system.l2.WritebackClean_accesses::total          789                       # number of WritebackClean accesses(hits+misses)
system.l2.WritebackClean_hits::.writebacks          789                       # number of WritebackClean hits
system.l2.WritebackClean_hits::total              789                       # number of WritebackClean hits
system.l2.WritebackDirty_accesses::.writebacks      8294648                       # number of WritebackDirty accesses(hits+misses)
system.l2.WritebackDirty_accesses::total      8294648                       # number of WritebackDirty accesses(hits+misses)
system.l2.WritebackDirty_hits::.writebacks      8294648                       # number of WritebackDirty hits
system.l2.WritebackDirty_hits::total          8294648                       # number of WritebackDirty hits
system.l2.avg_blocked_cycles::no_mshrs            nan                       # average number of cycles each access was blocked
system.l2.avg_blocked_cycles::no_targets          nan                       # average number of cycles each access was blocked
system.l2.blocked::no_mshrs                         0                       # number of cycles access was blocked
system.l2.blocked::no_targets                       0                       # number of cycles access was blocked
system.l2.blocked_cycles::no_mshrs                  0                       # number of cycles access was blocked
system.l2.blocked_cycles::no_targets                0                       # number of cycles access was blocked
system.l2.demand_accesses::.cpu.inst             2189                       # number of demand (read+write) accesses
system.l2.demand_accesses::.cpu.data          8298720                       # number of demand (read+write) accesses
system.l2.demand_accesses::total              8300909                       # number of demand (read+write) accesses
system.l2.demand_avg_miss_latency::.cpu.inst 109519.987310                       # average overall miss latency
system.l2.demand_avg_miss_latency::.cpu.data 86741.861686                       # average overall miss latency
system.l2.demand_avg_miss_latency::total 86746.188526                       # average overall miss latency
system.l2.demand_avg_mshr_miss_latency::.cpu.inst 99519.987310                       # average overall mshr miss latency
system.l2.demand_avg_mshr_miss_latency::.cpu.data 76741.861686                       # average overall mshr miss latency
system.l2.demand_avg_mshr_miss_latency::total 76746.188526                       # average overall mshr miss latency
system.l2.demand_hits::.cpu.inst                  613                       # number of demand (read+write) hits
system.l2.demand_hits::.cpu.data                 3636                       # number of demand (read+write) hits
system.l2.demand_hits::total                     4249                       # number of demand (read+write) hits
system.l2.demand_miss_latency::.cpu.inst    172603500                       # number of demand (read+write) miss cycles
system.l2.demand_miss_latency::.cpu.data 719531029000                       # number of demand (read+write) miss cycles
system.l2.demand_miss_latency::total     719703632500                       # number of demand (read+write) miss cycles
system.l2.demand_miss_rate::.cpu.inst        0.719963                       # miss rate for demand accesses
system.l2.demand_miss_rate::.cpu.data        0.999562                       # miss rate for demand accesses
system.l2.demand_miss_rate::total            0.999488                       # miss rate for demand accesses
system.l2.demand_misses::.cpu.inst               1576                       # number of demand (read+write) misses
system.l2.demand_misses::.cpu.data            8295084                       # number of demand (read+write) misses
system.l2.demand_misses::total                8296660                       # number of demand (read+write) misses
system.l2.demand_mshr_miss_latency::.cpu.inst    156843500                       # number of demand (read+write) MSHR miss cycles
system.l2.demand_mshr_miss_latency::.cpu.data 636580189000                       # number of demand (read+write) MSHR miss cycles
system.l2.demand_mshr_miss_latency::total 636737032500                       # number of demand (read+write) MSHR miss cycles
system.l2.demand_mshr_miss_rate::.cpu.inst     0.719963                       # mshr miss rate for demand accesses
system.l2.demand_mshr_miss_rate::.cpu.data     0.999562                       # mshr miss rate for demand accesses
system.l2.demand_mshr_miss_rate::total       0.999488                       # mshr miss rate for demand accesses
system.l2.demand_mshr_misses::.cpu.inst          1576                       # number of demand (read+write) MSHR misses
system.l2.demand_mshr_misses::.cpu.data       8295084                       # number of demand (read+write) MSHR misses
system.l2.demand_mshr_misses::total           8296660                       # number of demand (read+write) MSHR misses
system.l2.overall_accesses::.cpu.inst            2189                       # number of overall (read+write) accesses
system.l2.overall_accesses::.cpu.data         8298720                       # number of overall (read+write) accesses
system.l2.overall_accesses::total             8300909                       # number of overall (read+write) accesses
system.l2.overall_avg_miss_latency::.cpu.inst 109519.987310                       # average overall miss latency
system.l2.overall_avg_miss_latency::.cpu.data 86741.861686                       # average overall miss latency
system.l2.overall_avg_miss_latency::total 86746.188526                       # average overall miss latency
system.l2.overall_avg_mshr_miss_latency::.cpu.inst 99519.987310                       # average overall mshr miss latency
system.l2.overall_avg_mshr_miss_latency::.cpu.data 76741.861686                       # average overall mshr miss latency
system.l2.overall_avg_mshr_miss_latency::total 76746.188526                       # average overall mshr miss latency
system.l2.overall_hits::.cpu.inst                 613                       # number of overall hits
system.l2.overall_hits::.cpu.data                3636                       # number of overall hits
system.l2.overall_hits::total                    4249                       # number of overall hits
system.l2.overall_miss_latency::.cpu.inst    172603500                       # number of overall miss cycles
system.l2.overall_miss_latency::.cpu.data 719531029000                       # number of overall miss cycles
system.l2.overall_miss_latency::total    719703632500                       # number of overall miss cycles
system.l2.overall_miss_rate::.cpu.inst       0.719963                       # miss rate for overall accesses
system.l2.overall_miss_rate::.cpu.data       0.999562                       # miss rate for overall accesses
system.l2.overall_miss_rate::total           0.999488                       # miss rate for overall accesses
system.l2.overall_misses::.cpu.inst              1576                       # number of overall misses
system.l2.overall_misses::.cpu.data           8295084                       # number of overall misses
system.l2.overall_misses::total               8296660                       # number of overall misses
system.l2.overall_mshr_miss_latency::.cpu.inst    156843500                       # number of overall MSHR miss cycles
system.l2.overall_mshr_miss_latency::.cpu.data 636580189000                       # number of overall MSHR miss cycles
system.l2.overall_mshr_miss_latency::total 636737032500                       # number of overall MSHR miss cycles
system.l2.overall_mshr_miss_rate::.cpu.inst     0.719963                       # mshr miss rate for overall accesses
system.l2.overall_mshr_miss_rate::.cpu.data     0.999562                       # mshr miss rate for overall accesses
system.l2.overall_mshr_miss_rate::total      0.999488                       # mshr miss rate for overall accesses
system.l2.overall_mshr_misses::.cpu.inst         1576                       # number of overall MSHR misses
system.l2.overall_mshr_misses::.cpu.data      8295084                       # number of overall MSHR misses
system.l2.overall_mshr_misses::total          8296660                       # number of overall MSHR misses
system.l2.pwrStateResidencyTicks::UNDEFINED 956500713500                       # Cumulative time (in ticks) in various power states
system.l2.replacements                        8231589                       # number of replacements
system.l2.tags.age_task_id_blocks_1024::0            3                       # Occupied blocks per task id
system.l2.tags.age_task_id_blocks_1024::1            3                       # Occupied blocks per task id
system.l2.tags.age_task_id_blocks_1024::2           39                       # Occupied blocks per task id
system.l2.tags.age_task_id_blocks_1024::3          372                       # Occupied blocks per task id
system.l2.tags.age_task_id_blocks_1024::4        65119                       # Occupied blocks per task id
system.l2.tags.avg_refs                      2.000486                       # Average number of references to valid blocks.
system.l2.tags.data_accesses                 24895494                       # Number of data accesses
system.l2.tags.occ_blocks::.writebacks      14.313233                       # Average occupied blocks per requestor
system.l2.tags.occ_blocks::.cpu.inst        57.141631                       # Average occupied blocks per requestor
system.l2.tags.occ_blocks::.cpu.data     64719.836643                       # Average occupied blocks per requestor
system.l2.tags.occ_percent::.writebacks      0.000218                       # Average percentage of cache occupancy
system.l2.tags.occ_percent::.cpu.inst        0.000872                       # Average percentage of cache occupancy
system.l2.tags.occ_percent::.cpu.data        0.987546                       # Average percentage of cache occupancy
system.l2.tags.occ_percent::total            0.988637                       # Average percentage of cache occupancy
system.l2.tags.occ_task_id_blocks::1024         65536                       # Occupied blocks per task id
system.l2.tags.occ_task_id_percent::1024            1                       # Percentage of cache occupancy per task id
system.l2.tags.pwrStateResidencyTicks::UNDEFINED 956500713500                       # Cumulative time (in ticks) in various power states
system.l2.tags.sampled_refs                   8297125                       # Sample count of references to valid blocks.
system.l2.tags.tag_accesses                  24895494                       # Number of tag accesses
system.l2.tags.tagsinuse                 64791.291508                       # Cycle average of tags in use
system.l2.tags.total_refs                    16598279                       # Total number of references to valid blocks.
system.l2.tags.warmup_cycle                     77000                       # Cycle when the warmup percentage was hit.
system.l2.writebacks::.writebacks             8229942                       # number of writebacks
system.l2.writebacks::total                   8229942                       # number of writebacks
system.mem_ctrls.avgBusLat                    5000.00                       # Average bus latency per DRAM burst
system.mem_ctrls.avgGap                      57876.31                       # Average gap between requests
system.mem_ctrls.avgMemAccLat                35987.91                       # Average memory access latency per DRAM burst
system.mem_ctrls.avgPriority_.writebacks::samples   8229942.00                       # Average QoS priority value for accepted requests
system.mem_ctrls.avgPriority_.cpu.inst::samples      1576.00                       # Average QoS priority value for accepted requests
system.mem_ctrls.avgPriority_.cpu.data::samples   8295083.00                       # Average QoS priority value for accepted requests
system.mem_ctrls.avgQLat                     17237.91                       # Average queueing delay per DRAM burst
system.mem_ctrls.avgRdBW                       555.13                       # Average DRAM read bandwidth in MiByte/s
system.mem_ctrls.avgRdBWSys                    555.13                       # Average system read bandwidth in MiByte/s
system.mem_ctrls.avgRdQLen                       1.00                       # Average read queue length when enqueuing
system.mem_ctrls.avgWrBW                       550.67                       # Average achieved write bandwidth in MiByte/s
system.mem_ctrls.avgWrBWSys                    550.67                       # Average system write bandwidth in MiByte/s
system.mem_ctrls.avgWrQLen                      25.72                       # Average write queue length when enqueuing
system.mem_ctrls.busUtil                         8.64                       # Data bus utilization in percentage
system.mem_ctrls.busUtilRead                     4.34                       # Data bus utilization in percentage for reads
system.mem_ctrls.busUtilWrite                    4.30                       # Data bus utilization in percentage for writes
system.mem_ctrls.bw_inst_read::.cpu.inst       105451                       # Instruction read bandwidth from this memory (bytes/s)
system.mem_ctrls.bw_inst_read::total           105451                       # Instruction read bandwidth from this memory (bytes/s)
system.mem_ctrls.bw_read::.cpu.inst            105451                       # Total read bandwidth from this memory (bytes/s)
system.mem_ctrls.bw_read::.cpu.data         555028730                       # Total read bandwidth from this memory (bytes/s)
system.mem_ctrls.bw_read::total             555134181                       # Total read bandwidth from this memory (bytes/s)
system.mem_ctrls.bw_total::.writebacks      550670042                       # Total bandwidth to/from this memory (bytes/s)
system.mem_ctrls.bw_total::.cpu.inst           105451                       # Total bandwidth to/from this memory (bytes/s)
system.mem_ctrls.bw_total::.cpu.data        555028730                       # Total bandwidth to/from this memory (bytes/s)
system.mem_ctrls.bw_total::total           1105804223                       # Total bandwidth to/from this memory (bytes/s)
system.mem_ctrls.bw_write::.writebacks      550670042                       # Write bandwidth from this memory (bytes/s)
system.mem_ctrls.bw_write::total            550670042                       # Write bandwidth from this memory (bytes/s)
system.mem_ctrls.bytesPerActivate::samples      1248961                       # Bytes accessed per row activation
system.mem_ctrls.bytesPerActivate::mean    846.864093                       # Bytes accessed per row activation
system.mem_ctrls.bytesPerActivate::gmean   717.173671                       # Bytes accessed per row activation
system.mem_ctrls.bytesPerActivate::stdev   310.330828                       # Bytes accessed per row activation
system.mem_ctrls.bytesPerActivate::0-127        70018      5.61%      5.61% # Bytes accessed per row activation
system.mem_ctrls.bytesPerActivate::128-255        45894      3.67%      9.28% # Bytes accessed per row activation
system.mem_ctrls.bytesPerActivate::256-383        34416      2.76%     12.04% # Bytes accessed per row activation
system.mem_ctrls.bytesPerActivate::384-511        53709      4.30%     16.34% # Bytes accessed per row activation
system.mem_ctrls.bytesPerActivate::512-639        65407      5.24%     21.57% # Bytes accessed per row activation
system.mem_ctrls.bytesPerActivate::640-767        35368      2.83%     24.41% # Bytes accessed per row activation
system.mem_ctrls.bytesPerActivate::768-895        21867      1.75%     26.16% # Bytes accessed per row activation
system.mem_ctrls.bytesPerActivate::896-1023        85273      6.83%     32.98% # Bytes accessed per row activation
system.mem_ctrls.bytesPerActivate::1024-1151       837009     67.02%    100.00% # Bytes accessed per row activation
system.mem_ctrls.bytesPerActivate::total      1248961                       # Bytes accessed per row activation
system.mem_ctrls.bytesReadDRAM              530986176                       # Total number of bytes read from DRAM
system.mem_ctrls.bytesReadSys               530986240                       # Total read bytes from the system interface side
system.mem_ctrls.bytesReadWrQ                      64                       # Total number of bytes read from write queue
system.mem_ctrls.bytesWritten               526714240                       # Total number of bytes written to DRAM
system.mem_ctrls.bytesWrittenSys            526716288                       # Total written bytes from the system interface side
system.mem_ctrls.bytes_inst_read::.cpu.inst       100864                       # Number of instructions bytes read from this memory
system.mem_ctrls.bytes_inst_read::total        100864                       # Number of instructions bytes read from this memory
system.mem_ctrls.bytes_read::.cpu.inst         100864                       # Number of bytes read from this memory
system.mem_ctrls.bytes_read::.cpu.data      530885376                       # Number of bytes read from this memory
system.mem_ctrls.bytes_read::total          530986240                       # Number of bytes read from this memory
system.mem_ctrls.bytes_written::.writebacks    526716288                       # Number of bytes written to this memory
system.mem_ctrls.bytes_written::total       526716288                       # Number of bytes written to this memory
system.mem_ctrls.masterReadAccesses::.cpu.inst         1576                       # Per-master read serviced memory accesses
system.mem_ctrls.masterReadAccesses::.cpu.data      8295084                       # Per-master read serviced memory accesses
system.mem_ctrls.masterReadAvgLat::.cpu.inst     58683.38                       # Per-master read average memory access latency
system.mem_ctrls.masterReadAvgLat::.cpu.data     35983.59                       # Per-master read average memory access latency
system.mem_ctrls.masterReadBytes::.cpu.inst       100864                       # Per-master bytes read from memory
system.mem_ctrls.masterReadBytes::.cpu.data    530885312                       # Per-master bytes read from memory
system.mem_ctrls.masterReadRate::.cpu.inst 105451.045228101648                       # Per-master bytes read from memory rate (Bytes/sec)
system.mem_ctrls.masterReadRate::.cpu.data 555028662.819706320763                       # Per-master bytes read from memory rate (Bytes/sec)
system.mem_ctrls.masterReadTotalLat::.cpu.inst     92485000                       # Per-master read total memory access latency
system.mem_ctrls.masterReadTotalLat::.cpu.data 298486906251                       # Per-master read total memory access latency
system.mem_ctrls.masterWriteAccesses::.writebacks      8229942                       # Per-master write serviced memory accesses
system.mem_ctrls.masterWriteAvgLat::.writebacks   2843351.58                       # Per-master write average memory access latency
system.mem_ctrls.masterWriteBytes::.writebacks    526714240                       # Per-master bytes write to memory
system.mem_ctrls.masterWriteRate::.writebacks 550667900.782491207123                       # Per-master bytes write to memory rate (Bytes/sec)
system.mem_ctrls.masterWriteTotalLat::.writebacks 23400618575520                       # Per-master write total memory access latency
system.mem_ctrls.mergedWrBursts                     0                       # Number of DRAM write bursts merged with an existing one
system.mem_ctrls.neitherReadNorWriteReqs            0                       # Number of requests that are neither read nor write
system.mem_ctrls.numRdRetry                         0                       # Number of times read queue was full causing retry
system.mem_ctrls.numReadWriteTurnArounds       514107                       # Number of turnarounds from READ to WRITE
system.mem_ctrls.numStayReadState            24436769                       # Number of times bus staying in READ state
system.mem_ctrls.numStayWriteState            7729214                       # Number of times bus staying in WRITE state
system.mem_ctrls.numWrRetry                         0                       # Number of times write queue was full causing retry
system.mem_ctrls.numWriteReadTurnArounds       514107                       # Number of turnarounds from WRITE to READ
system.mem_ctrls.num_reads::.cpu.inst            1576                       # Number of read requests responded to by this memory
system.mem_ctrls.num_reads::.cpu.data         8295084                       # Number of read requests responded to by this memory
system.mem_ctrls.num_reads::total             8296660                       # Number of read requests responded to by this memory
system.mem_ctrls.num_writes::.writebacks      8229942                       # Number of write requests responded to by this memory
system.mem_ctrls.num_writes::total            8229942                       # Number of write requests responded to by this memory
system.mem_ctrls.pageHitRate                    92.44                       # Row buffer hit rate, read and write combined
system.mem_ctrls.peakBW                      12800.00                       # Theoretical peak bandwidth in MiByte/s
system.mem_ctrls.perBankRdBursts::0            518474                       # Per bank write bursts
system.mem_ctrls.perBankRdBursts::1            518413                       # Per bank write bursts
system.mem_ctrls.perBankRdBursts::2            518416                       # Per bank write bursts
system.mem_ctrls.perBankRdBursts::3            518565                       # Per bank write bursts
system.mem_ctrls.perBankRdBursts::4            518712                       # Per bank write bursts
system.mem_ctrls.perBankRdBursts::5            518499                       # Per bank write bursts
system.mem_ctrls.perBankRdBursts::6            518365                       # Per bank write bursts
system.mem_ctrls.perBankRdBursts::7            518343                       # Per bank write bursts
system.mem_ctrls.perBankRdBursts::8            518234                       # Per bank write bursts
system.mem_ctrls.perBankRdBursts::9            518408                       # Per bank write bursts
system.mem_ctrls.perBankRdBursts::10           518577                       # Per bank write bursts
system.mem_ctrls.perBankRdBursts::11           518787                       # Per bank write bursts
system.mem_ctrls.perBankRdBursts::12           518713                       # Per bank write bursts
system.mem_ctrls.perBankRdBursts::13           518731                       # Per bank write bursts
system.mem_ctrls.perBankRdBursts::14           518695                       # Per bank write bursts
system.mem_ctrls.perBankRdBursts::15           518727                       # Per bank write bursts
system.mem_ctrls.perBankWrBursts::0            514265                       # Per bank write bursts
system.mem_ctrls.perBankWrBursts::1            514253                       # Per bank write bursts
system.mem_ctrls.perBankWrBursts::2            514291                       # Per bank write bursts
system.mem_ctrls.perBankWrBursts::3            514362                       # Per bank write bursts
system.mem_ctrls.perBankWrBursts::4            514461                       # Per bank write bursts
system.mem_ctrls.perBankWrBursts::5            514293                       # Per bank write bursts
system.mem_ctrls.perBankWrBursts::6            514218                       # Per bank write bursts
system.mem_ctrls.perBankWrBursts::7            514149                       # Per bank write bursts
system.mem_ctrls.perBankWrBursts::8            514102                       # Per bank write bursts
system.mem_ctrls.perBankWrBursts::9            514230                       # Per bank write bursts
system.mem_ctrls.perBankWrBursts::10           514414                       # Per bank write bursts
system.mem_ctrls.perBankWrBursts::11           514645                       # Per bank write bursts
system.mem_ctrls.perBankWrBursts::12           514571                       # Per bank write bursts
system.mem_ctrls.perBankWrBursts::13           514562                       # Per bank write bursts
system.mem_ctrls.perBankWrBursts::14           514557                       # Per bank write bursts
system.mem_ctrls.perBankWrBursts::15           514537                       # Per bank write bursts
system.mem_ctrls.priorityMaxLatency      0.006743216750                       # per QoS priority maximum request to response latency (s)
system.mem_ctrls.priorityMinLatency      0.000000018750                       # per QoS priority minimum request to response latency (s)
system.mem_ctrls.pwrStateResidencyTicks::UNDEFINED 956500713500                       # Cumulative time (in ticks) in various power states
system.mem_ctrls.rdPerTurnAround::samples       514107                       # Reads before turning the bus around for writes
system.mem_ctrls.rdPerTurnAround::mean      16.137969                       # Reads before turning the bus around for writes
system.mem_ctrls.rdPerTurnAround::gmean     16.010989                       # Reads before turning the bus around for writes
system.mem_ctrls.rdPerTurnAround::stdev     55.631778                       # Reads before turning the bus around for writes
system.mem_ctrls.rdPerTurnAround::0-2047       514103    100.00%    100.00% # Reads before turning the bus around for writes
system.mem_ctrls.rdPerTurnAround::2048-4095            1      0.00%    100.00% # Reads before turning the bus around for writes
system.mem_ctrls.rdPerTurnAround::4096-6143            1      0.00%    100.00% # Reads before turning the bus around for writes
system.mem_ctrls.rdPerTurnAround::18432-20479            1      0.00%    100.00% # Reads before turning the bus around for writes
system.mem_ctrls.rdPerTurnAround::32768-34815            1      0.00%    100.00% # Reads before turning the bus around for writes
system.mem_ctrls.rdPerTurnAround::total        514107                       # Reads before turning the bus around for writes
system.mem_ctrls.rdQLenPdf::0                 8296658                       # What read queue length does an incoming req see
system.mem_ctrls.rdQLenPdf::1                       1                       # What read queue length does an incoming req see
system.mem_ctrls.rdQLenPdf::2                       0                       # What read queue length does an incoming req see
system.mem_ctrls.rdQLenPdf::3                       0                       # What read queue length does an incoming req see
system.mem_ctrls.rdQLenPdf::4                       0                       # What read queue length does an incoming req see
system.mem_ctrls.rdQLenPdf::5                       0                       # What read queue length does an incoming req see
system.mem_ctrls.rdQLenPdf::6                       0                       # What read queue length does an incoming req see
system.mem_ctrls.rdQLenPdf::7                       0                       # What read queue length does an incoming req see
system.mem_ctrls.rdQLenPdf::8                       0                       # What read queue length does an incoming req see
system.mem_ctrls.rdQLenPdf::9                       0                       # What read queue length does an incoming req see
system.mem_ctrls.rdQLenPdf::10                      0                       # What read queue length does an incoming req see
system.mem_ctrls.rdQLenPdf::11                      0                       # What read queue length does an incoming req see
system.mem_ctrls.rdQLenPdf::12                      0                       # What read queue length does an incoming req see
system.mem_ctrls.rdQLenPdf::13                      0                       # What read queue length does an incoming req see
system.mem_ctrls.rdQLenPdf::14                      0                       # What read queue length does an incoming req see
system.mem_ctrls.rdQLenPdf::15                      0                       # What read queue length does an incoming req see
system.mem_ctrls.rdQLenPdf::16                      0                       # What read queue length does an incoming req see
system.mem_ctrls.rdQLenPdf::17                      0                       # What read queue length does an incoming req see
system.mem_ctrls.rdQLenPdf::18                      0                       # What read queue length does an incoming req see
system.mem_ctrls.rdQLenPdf::19                      0                       # What read queue length does an incoming req see
system.mem_ctrls.rdQLenPdf::20                      0                       # What read queue length does an incoming req see
system.mem_ctrls.rdQLenPdf::21                      0                       # What read queue length does an incoming req see
system.mem_ctrls.rdQLenPdf::22                      0                       # What read queue length does an incoming req see
system.mem_ctrls.rdQLenPdf::23                      0                       # What read queue length does an incoming req see
system.mem_ctrls.rdQLenPdf::24                      0                       # What read queue length does an incoming req see
system.mem_ctrls.rdQLenPdf::25                      0                       # What read queue length does an incoming req see
system.mem_ctrls.rdQLenPdf::26                      0                       # What read queue length does an incoming req see
system.mem_ctrls.rdQLenPdf::27                      0                       # What read queue length does an incoming req see
system.mem_ctrls.rdQLenPdf::28                      0                       # What read queue length does an incoming req see
system.mem_ctrls.rdQLenPdf::29                      0                       # What read queue length does an incoming req see
system.mem_ctrls.rdQLenPdf::30                      0                       # What read queue length does an incoming req see
system.mem_ctrls.rdQLenPdf::31                      0                       # What read queue length does an incoming req see
system.mem_ctrls.readBursts                   8296660                       # Number of DRAM read bursts, including those serviced by the write queue
system.mem_ctrls.readPktSize::0                     0                       # Read request sizes (log2)
system.mem_ctrls.readPktSize::1                     0                       # Read request sizes (log2)
system.mem_ctrls.readPktSize::2                     0                       # Read request sizes (log2)
system.mem_ctrls.readPktSize::3                     0                       # Read request sizes (log2)
system.mem_ctrls.readPktSize::4                     0                       # Read request sizes (log2)
system.mem_ctrls.readPktSize::5                     0                       # Read request sizes (log2)
system.mem_ctrls.readPktSize::6               8296660                       # Read request sizes (log2)
system.mem_ctrls.readReqs                     8296660                       # Number of read requests accepted
system.mem_ctrls.readRowHitRate                 91.91                       # Row buffer hit rate for reads
system.mem_ctrls.readRowHits                  7625578                       # Number of row buffer hits during reads
system.mem_ctrls.servicedByWrQ                      1                       # Number of DRAM read bursts serviced by the write queue
system.mem_ctrls.totBusLat                41483295000                       # Total ticks spent in databus transfers
system.mem_ctrls.totGap                  956498765500                       # Total gap between requests
system.mem_ctrls.totMemAccLat            298579391251                       # Total ticks spent from burst creation until serviced by the DRAM
system.mem_ctrls.totQLat                 143017035001                       # Total ticks spent queuing
system.mem_ctrls.wrPerTurnAround::samples       514107                       # Writes before turning the bus around for reads
system.mem_ctrls.wrPerTurnAround::mean      16.008166                       # Writes before turning the bus around for reads
system.mem_ctrls.wrPerTurnAround::gmean     16.007696                       # Writes before turning the bus around for reads
system.mem_ctrls.wrPerTurnAround::stdev      0.127594                       # Writes before turning the bus around for reads
system.mem_ctrls.wrPerTurnAround::16           512008     99.59%     99.59% # Writes before turning the bus around for reads
[...]
system.mem_ctrls.wrQLenPdf::26                 514108                       # What write queue length does an incoming req see
system.mem_ctrls.wrQLenPdf::27                 514108                       # What write queue length does an incoming req see
system.mem_ctrls.wrQLenPdf::28                 514109                       # What write queue length does an incoming req see
system.mem_ctrls.wrQLenPdf::29                 514109                       # What write queue length does an incoming req see
system.mem_ctrls.wrQLenPdf::30                 514119                       # What write queue length does an incoming req see
system.mem_ctrls.wrQLenPdf::31                 514108                       # What write queue length does an incoming req see
system.mem_ctrls.wrQLenPdf::32                 514110                       # What write queue length does an incoming req see
system.mem_ctrls.wrQLenPdf::33                      0                       # What write queue length does an incoming req see
system.mem_ctrls.wrQLenPdf::34                      0                       # What write queue length does an incoming req see
system.mem_ctrls.wrQLenPdf::35                      0                       # What write queue length does an incoming req see
system.mem_ctrls.wrQLenPdf::36                      0                       # What write queue length does an incoming req see
system.mem_ctrls.wrQLenPdf::37                      0                       # What write queue length does an incoming req see
system.mem_ctrls.wrQLenPdf::38                      0                       # What write queue length does an incoming req see
system.mem_ctrls.wrQLenPdf::39                      0                       # What write queue length does an incoming req see
system.mem_ctrls.wrQLenPdf::40                      0                       # What write queue length does an incoming req see
system.mem_ctrls.wrQLenPdf::41                      0                       # What write queue length does an incoming req see
system.mem_ctrls.wrQLenPdf::42                      0                       # What write queue length does an incoming req see
system.mem_ctrls.wrQLenPdf::43                      0                       # What write queue length does an incoming req see
system.mem_ctrls.wrQLenPdf::44                      0                       # What write queue length does an incoming req see
system.mem_ctrls.wrQLenPdf::45                      0                       # What write queue length does an incoming req see
system.mem_ctrls.wrQLenPdf::46                      0                       # What write queue length does an incoming req see
system.mem_ctrls.wrQLenPdf::47                      0                       # What write queue length does an incoming req see
system.mem_ctrls.wrQLenPdf::48                      0                       # What write queue length does an incoming req see
system.mem_ctrls.wrQLenPdf::49                      0                       # What write queue length does an incoming req see
system.mem_ctrls.wrQLenPdf::50                      0                       # What write queue length does an incoming req see
system.mem_ctrls.wrQLenPdf::51                      0                       # What write queue length does an incoming req see
system.mem_ctrls.wrQLenPdf::52                      0                       # What write queue length does an incoming req see
system.mem_ctrls.wrQLenPdf::53                      0                       # What write queue length does an incoming req see
system.mem_ctrls.wrQLenPdf::54                      0                       # What write queue length does an incoming req see
system.mem_ctrls.wrQLenPdf::55                      0                       # What write queue length does an incoming req see
system.mem_ctrls.wrQLenPdf::56                      0                       # What write queue length does an incoming req see
system.mem_ctrls.wrQLenPdf::57                      0                       # What write queue length does an incoming req see
system.mem_ctrls.wrQLenPdf::58                      0                       # What write queue length does an incoming req see
system.mem_ctrls.wrQLenPdf::59                      0                       # What write queue length does an incoming req see
system.mem_ctrls.wrQLenPdf::60                      0                       # What write queue length does an incoming req see
system.mem_ctrls.wrQLenPdf::61                      0                       # What write queue length does an incoming req see
system.mem_ctrls.wrQLenPdf::62                      0                       # What write queue length does an incoming req see
system.mem_ctrls.wrQLenPdf::63                      0                       # What write queue length does an incoming req see
system.mem_ctrls.writeBursts                  8229942                       # Number of DRAM write bursts, including those merged in the write queue
system.mem_ctrls.writePktSize::0                    0                       # Write request sizes (log2)
system.mem_ctrls.writePktSize::1                    0                       # Write request sizes (log2)
system.mem_ctrls.writePktSize::2                    0                       # Write request sizes (log2)
system.mem_ctrls.writePktSize::3                    0                       # Write request sizes (log2)
system.mem_ctrls.writePktSize::4                    0                       # Write request sizes (log2)
system.mem_ctrls.writePktSize::5                    0                       # Write request sizes (log2)
system.mem_ctrls.writePktSize::6              8229942                       # Write request sizes (log2)
system.mem_ctrls.writeReqs                    8229942                       # Number of write requests accepted
system.mem_ctrls.writeRowHitRate                92.98                       # Row buffer hit rate for writes
system.mem_ctrls.writeRowHits                 7652027                       # Number of row buffer hits during writes
system.mem_ctrls_0.actBackEnergy          80525573520                       # Energy for active background per rank (pJ)
system.mem_ctrls_0.actEnergy               4458937140                       # Energy for activate commands per rank (pJ)
system.mem_ctrls_0.actPowerDownEnergy    131081044650                       # Energy for active power-down per rank (pJ)
system.mem_ctrls_0.averagePower            463.104525                       # Core power per rank (mW)
system.mem_ctrls_0.memoryStateTime::IDLE   4860029000                       # Time in different power states
system.mem_ctrls_0.memoryStateTime::REF   17693520000                       # Time in different power states
system.mem_ctrls_0.memoryStateTime::SREF 424792171000                       # Time in different power states
system.mem_ctrls_0.memoryStateTime::PRE_PDN  56253587750                       # Time in different power states
system.mem_ctrls_0.memoryStateTime::ACT  165541768499                       # Time in different power states
system.mem_ctrls_0.memoryStateTime::ACT_PDN 287359637251                       # Time in different power states
system.mem_ctrls_0.preBackEnergy           4374874080                       # Energy for precharge background per rank (pJ)
system.mem_ctrls_0.preEnergy               2369977500                       # Energy for precharge commands per rank (pJ)
system.mem_ctrls_0.prePowerDownEnergy     21603467040                       # Energy for precharge power-down per rank (pJ)
system.mem_ctrls_0.readEnergy             29615199180                       # Energy for read commands per rank (pJ)
system.mem_ctrls_0.refreshEnergy         41827481280.000008                       # Energy for refresh commands per rank (pJ)
system.mem_ctrls_0.selfRefreshEnergy     105623647560                       # Energy for self refresh per rank (pJ)
system.mem_ctrls_0.totalEnergy           442959808740                       # Total energy per rank (pJ)
system.mem_ctrls_0.totalIdleTime         768402162251                       # Total Idle time Per DRAM Rank
system.mem_ctrls_0.writeEnergy            21476604240                       # Energy for write commands per rank (pJ)
system.mem_ctrls_1.actBackEnergy          80566325100                       # Energy for active background per rank (pJ)
system.mem_ctrls_1.actEnergy               4458665820                       # Energy for activate commands per rank (pJ)
system.mem_ctrls_1.actPowerDownEnergy    130921120320                       # Energy for active power-down per rank (pJ)
system.mem_ctrls_1.averagePower            463.011578                       # Core power per rank (mW)
system.mem_ctrls_1.memoryStateTime::IDLE   4858810750                       # Time in different power states
system.mem_ctrls_1.memoryStateTime::REF   17684940000                       # Time in different power states
system.mem_ctrls_1.memoryStateTime::SREF 425062455250                       # Time in different power states
system.mem_ctrls_1.memoryStateTime::PRE_PDN  56238049251                       # Time in different power states
system.mem_ctrls_1.memoryStateTime::ACT  165567166998                       # Time in different power states
system.mem_ctrls_1.memoryStateTime::ACT_PDN 287089291251                       # Time in different power states
system.mem_ctrls_1.preBackEnergy           4378870560                       # Energy for precharge background per rank (pJ)
system.mem_ctrls_1.preEnergy               2369829495                       # Energy for precharge commands per rank (pJ)
system.mem_ctrls_1.prePowerDownEnergy     21595695840                       # Energy for precharge power-down per rank (pJ)
system.mem_ctrls_1.readEnergy             29622946080                       # Energy for read commands per rank (pJ)
system.mem_ctrls_1.refreshEnergy         41807198160.000008                       # Energy for refresh commands per rank (pJ)
system.mem_ctrls_1.selfRefreshEnergy     105663326220                       # Energy for self refresh per rank (pJ)
system.mem_ctrls_1.totalEnergy           442870904565                       # Total energy per rank (pJ)
system.mem_ctrls_1.totalIdleTime         768387818752                       # Total Idle time Per DRAM Rank
system.mem_ctrls_1.writeEnergy            21483525960                       # Energy for write commands per rank (pJ)
system.membus.pkt_count_system.l2.mem_side::system.mem_ctrls.port     24823687                       # Packet count per connected master and slave (bytes)
system.membus.pkt_count_system.l2.mem_side::total     24823687                       # Packet count per connected master and slave (bytes)
system.membus.pkt_count::total               24823687                       # Packet count per connected master and slave (bytes)
system.membus.pkt_size_system.l2.mem_side::system.mem_ctrls.port   1057702528                       # Cumulative packet size per connected master and slave (bytes)
system.membus.pkt_size_system.l2.mem_side::total   1057702528                       # Cumulative packet size per connected master and slave (bytes)
system.membus.pkt_size::total              1057702528                       # Cumulative packet size per connected master and slave (bytes)
system.membus.pwrStateResidencyTicks::UNDEFINED 956500713500                       # Cumulative time (in ticks) in various power states
system.membus.reqLayer2.occupancy         49446827966                       # Layer occupancy (ticks)
system.membus.reqLayer2.utilization               5.2                       # Layer utilization (%)
system.membus.respLayer1.occupancy        43626203999                       # Layer occupancy (ticks)
system.membus.respLayer1.utilization              4.6                       # Layer utilization (%)
system.membus.snoopTraffic                          0                       # Total snoop traffic (bytes)
system.membus.snoop_fanout::samples           8296660                       # Request fanout histogram
system.membus.snoop_fanout::mean                    0                       # Request fanout histogram
system.membus.snoop_fanout::stdev                   0                       # Request fanout histogram
system.membus.snoop_fanout::underflows              0      0.00%      0.00% # Request fanout histogram
system.membus.snoop_fanout::0                 8296660    100.00%    100.00% # Request fanout histogram
system.membus.snoop_fanout::1                       0      0.00%    100.00% # Request fanout histogram
system.membus.snoop_fanout::overflows               0      0.00%    100.00% # Request fanout histogram
system.membus.snoop_fanout::min_value               0                       # Request fanout histogram
system.membus.snoop_fanout::max_value               0                       # Request fanout histogram
system.membus.snoop_fanout::total             8296660                       # Request fanout histogram
system.membus.snoop_filter.hit_multi_requests            0                       # Number of requests hitting in the snoop filter with multiple (>1) holders of the requested data.
system.membus.snoop_filter.hit_multi_snoops            0                       # Number of snoops hitting in the snoop filter with multiple (>1) holders of the requested data.
system.membus.snoop_filter.hit_single_requests      8230367                       # Number of requests hitting in the snoop filter with a single holder of the requested data.
system.membus.snoop_filter.hit_single_snoops            0                       # Number of snoops hitting in the snoop filter with a single holder of the requested data.
system.membus.snoop_filter.tot_requests      16527027                       # Total number of requests made to the snoop filter.
system.membus.snoop_filter.tot_snoops               0                       # Total number of snoops made to the snoop filter.
system.membus.snoops                                0                       # Total snoops (count)
system.membus.trans_dist::ReadResp               6965                       # Transaction distribution
system.membus.trans_dist::WritebackDirty      8229942                       # Transaction distribution
system.membus.trans_dist::CleanEvict              425                       # Transaction distribution
system.membus.trans_dist::ReadExReq           8289695                       # Transaction distribution
system.membus.trans_dist::ReadExResp          8289695                       # Transaction distribution
system.membus.trans_dist::ReadSharedReq          6965                       # Transaction distribution
system.pwrStateResidencyTicks::UNDEFINED 956500713500                       # Cumulative time (in ticks) in various power states
system.tol2bus.pkt_count_system.cpu.icache.mem_side::system.l2.cpu_side         5167                       # Packet count per connected master and slave (bytes)
system.tol2bus.pkt_count_system.cpu.dcache.mem_side::system.l2.cpu_side     24894112                       # Packet count per connected master and slave (bytes)
system.tol2bus.pkt_count::total              24899279                       # Packet count per connected master and slave (bytes)
system.tol2bus.pkt_size_system.cpu.icache.mem_side::system.l2.cpu_side       190592                       # Cumulative packet size per connected master and slave (bytes)
system.tol2bus.pkt_size_system.cpu.dcache.mem_side::system.l2.cpu_side   1061975552                       # Cumulative packet size per connected master and slave (bytes)
system.tol2bus.pkt_size::total             1062166144                       # Cumulative packet size per connected master and slave (bytes)
system.tol2bus.pwrStateResidencyTicks::UNDEFINED 956500713500                       # Cumulative time (in ticks) in various power states
system.tol2bus.reqLayer0.occupancy        16594622000                       # Layer occupancy (ticks)
system.tol2bus.reqLayer0.utilization              1.7                       # Layer utilization (%)
system.tol2bus.respLayer0.occupancy           3283500                       # Layer occupancy (ticks)
system.tol2bus.respLayer0.utilization             0.0                       # Layer utilization (%)
system.tol2bus.respLayer1.occupancy       12448080000                       # Layer occupancy (ticks)
system.tol2bus.respLayer1.utilization             1.3                       # Layer utilization (%)
system.tol2bus.snoopTraffic                 526716288                       # Total snoop traffic (bytes)
system.tol2bus.snoop_fanout::samples         16532498                       # Request fanout histogram
system.tol2bus.snoop_fanout::mean            0.000079                       # Request fanout histogram
system.tol2bus.snoop_fanout::stdev           0.008911                       # Request fanout histogram
system.tol2bus.snoop_fanout::underflows             0      0.00%      0.00% # Request fanout histogram
system.tol2bus.snoop_fanout::0               16531185     99.99%     99.99% # Request fanout histogram
system.tol2bus.snoop_fanout::1                   1313      0.01%    100.00% # Request fanout histogram
system.tol2bus.snoop_fanout::2                      0      0.00%    100.00% # Request fanout histogram
system.tol2bus.snoop_fanout::3                      0      0.00%    100.00% # Request fanout histogram
system.tol2bus.snoop_fanout::4                      0      0.00%    100.00% # Request fanout histogram
system.tol2bus.snoop_fanout::overflows              0      0.00%    100.00% # Request fanout histogram
system.tol2bus.snoop_fanout::min_value              0                       # Request fanout histogram
system.tol2bus.snoop_fanout::max_value              1                       # Request fanout histogram
system.tol2bus.snoop_fanout::total           16532498                       # Request fanout histogram
system.tol2bus.snoop_filter.hit_multi_requests            1                       # Number of requests hitting in the snoop filter with multiple (>1) holders of the requested data.
system.tol2bus.snoop_filter.hit_multi_snoops            0                       # Number of snoops hitting in the snoop filter with multiple (>1) holders of the requested data.
system.tol2bus.snoop_filter.hit_single_requests      8297461                       # Number of requests hitting in the snoop filter with a single holder of the requested data.
system.tol2bus.snoop_filter.hit_single_snoops         1312                       # Number of snoops hitting in the snoop filter with a single holder of the requested data.
system.tol2bus.snoop_filter.tot_requests     16598370                       # Total number of requests made to the snoop filter.
system.tol2bus.snoop_filter.tot_snoops           1312                       # Total number of snoops made to the snoop filter.
system.tol2bus.snoops                         8231589                       # Total snoops (count)
system.tol2bus.trans_dist::ReadResp             10059                       # Transaction distribution
system.tol2bus.trans_dist::WritebackDirty     16524590                       # Transaction distribution
system.tol2bus.trans_dist::WritebackClean          789                       # Transaction distribution
system.tol2bus.trans_dist::CleanEvict            3671                       # Transaction distribution
system.tol2bus.trans_dist::ReadExReq          8290850                       # Transaction distribution
system.tol2bus.trans_dist::ReadExResp         8290850                       # Transaction distribution
system.tol2bus.trans_dist::ReadCleanReq          2189                       # Transaction distribution
system.tol2bus.trans_dist::ReadSharedReq         7870                       # Transaction distribution
system.voltage_domain.voltage                       1                       # Voltage in Volts

---------- End Simulation Statistics   ----------
