
---------- Begin Simulation Statistics ----------
final_tick                               393552886500                       # Number of ticks from beginning of simulation (restored from checkpoints and never reset)
host_inst_rate                                 450674                       # Simulator instruction rate (inst/s)
host_mem_usage                                 810436                       # Number of bytes of host memory used
host_op_rate                                   566920                       # Simulator op (including micro ops) rate (op/s)
host_seconds                                   221.89                       # Real time elapsed on the host
host_tick_rate                             1773634439                       # Simulator tick rate (ticks/s)
sim_freq                                 1000000000000                       # Frequency of simulated ticks
sim_insts                                   100000000                       # Number of instructions simulated
sim_ops                                     125794192                       # Number of ops (including micro ops) simulated
sim_seconds                                  0.393553                       # Number of seconds simulated
sim_ticks                                393552886500                       # Number of ticks simulated
system.clk_domain.clock                          1000                       # Clock period in ticks
system.cpu.Branches                           5058750                       # Number of branches fetched
system.cpu.apic_clk_domain.clock                 8000                       # Clock period in ticks
system.cpu.committedInsts                   100000000                       # Number of instructions committed
system.cpu.committedOps                     125794192                       # Number of ops (including micro ops) committed
system.cpu.dcache.ReadReq_accesses::.cpu.data     47308635                       # number of ReadReq accesses(hits+misses)
system.cpu.dcache.ReadReq_accesses::total     47308635                       # number of ReadReq accesses(hits+misses)
system.cpu.dcache.ReadReq_avg_miss_latency::.cpu.data 68669.322313                       # average ReadReq miss latency
system.cpu.dcache.ReadReq_avg_miss_latency::total 68669.322313                       # average ReadReq miss latency
system.cpu.dcache.ReadReq_avg_mshr_miss_latency::.cpu.data 67669.322313                       # average ReadReq mshr miss latency
system.cpu.dcache.ReadReq_avg_mshr_miss_latency::total 67669.322313                       # average ReadReq mshr miss latency
system.cpu.dcache.ReadReq_hits::.cpu.data     46040143                       # number of ReadReq hits
system.cpu.dcache.ReadReq_hits::total        46040143                       # number of ReadReq hits
system.cpu.dcache.ReadReq_miss_latency::.cpu.data  87106486000                       # number of ReadReq miss cycles
system.cpu.dcache.ReadReq_miss_latency::total  87106486000                       # number of ReadReq miss cycles
system.cpu.dcache.ReadReq_miss_rate::.cpu.data     0.026813                       # miss rate for ReadReq accesses
system.cpu.dcache.ReadReq_miss_rate::total     0.026813                       # miss rate for ReadReq accesses
system.cpu.dcache.ReadReq_misses::.cpu.data      1268492                       # number of ReadReq misses
system.cpu.dcache.ReadReq_misses::total       1268492                       # number of ReadReq misses
system.cpu.dcache.ReadReq_mshr_miss_latency::.cpu.data  85837994000                       # number of ReadReq MSHR miss cycles
system.cpu.dcache.ReadReq_mshr_miss_latency::total  85837994000                       # number of ReadReq MSHR miss cycles
system.cpu.dcache.ReadReq_mshr_miss_rate::.cpu.data     0.026813                       # mshr miss rate for ReadReq accesses
system.cpu.dcache.ReadReq_mshr_miss_rate::total     0.026813                       # mshr miss rate for ReadReq accesses
system.cpu.dcache.ReadReq_mshr_misses::.cpu.data      1268492                       # number of ReadReq MSHR misses
system.cpu.dcache.ReadReq_mshr_misses::total      1268492                       # number of ReadReq MSHR misses
system.cpu.dcache.SoftPFReq_accesses::.cpu.data        65536                       # number of SoftPFReq accesses(hits+misses)
system.cpu.dcache.SoftPFReq_accesses::total        65536                       # number of SoftPFReq accesses(hits+misses)
system.cpu.dcache.SoftPFReq_avg_mshr_miss_latency::.cpu.data 92984.091415                       # average SoftPFReq mshr miss latency
system.cpu.dcache.SoftPFReq_avg_mshr_miss_latency::total 92984.091415                       # average SoftPFReq mshr miss latency
system.cpu.dcache.SoftPFReq_miss_rate::.cpu.data            1                       # miss rate for SoftPFReq accesses
system.cpu.dcache.SoftPFReq_miss_rate::total            1                       # miss rate for SoftPFReq accesses
system.cpu.dcache.SoftPFReq_misses::.cpu.data        65536                       # number of SoftPFReq misses
system.cpu.dcache.SoftPFReq_misses::total        65536                       # number of SoftPFReq misses
system.cpu.dcache.SoftPFReq_mshr_miss_latency::.cpu.data   6093805415                       # number of SoftPFReq MSHR miss cycles
system.cpu.dcache.SoftPFReq_mshr_miss_latency::total   6093805415                       # number of SoftPFReq MSHR miss cycles
system.cpu.dcache.SoftPFReq_mshr_miss_rate::.cpu.data            1                       # mshr miss rate for SoftPFReq accesses
system.cpu.dcache.SoftPFReq_mshr_miss_rate::total            1                       # mshr miss rate for SoftPFReq accesses
system.cpu.dcache.SoftPFReq_mshr_misses::.cpu.data        65536                       # number of SoftPFReq MSHR misses
system.cpu.dcache.SoftPFReq_mshr_misses::total        65536                       # number of SoftPFReq MSHR misses
system.cpu.dcache.WriteReq_accesses::.cpu.data     17644618                       # number of WriteReq accesses(hits+misses)
system.cpu.dcache.WriteReq_accesses::total     17644618                       # number of WriteReq accesses(hits+misses)
system.cpu.dcache.WriteReq_avg_miss_latency::.cpu.data 83741.862254                       # average WriteReq miss latency
system.cpu.dcache.WriteReq_avg_miss_latency::total 83741.862254                       # average WriteReq miss latency
system.cpu.dcache.WriteReq_avg_mshr_miss_latency::.cpu.data 82741.862254                       # average WriteReq mshr miss latency
system.cpu.dcache.WriteReq_avg_mshr_miss_latency::total 82741.862254                       # average WriteReq mshr miss latency
system.cpu.dcache.WriteReq_hits::.cpu.data     16360540                       # number of WriteReq hits
system.cpu.dcache.WriteReq_hits::total       16360540                       # number of WriteReq hits
system.cpu.dcache.WriteReq_miss_latency::.cpu.data 107531083000                       # number of WriteReq miss cycles
system.cpu.dcache.WriteReq_miss_latency::total 107531083000                       # number of WriteReq miss cycles
system.cpu.dcache.WriteReq_miss_rate::.cpu.data     0.072774                       # miss rate for WriteReq accesses
system.cpu.dcache.WriteReq_miss_rate::total     0.072774                       # miss rate for WriteReq accesses
system.cpu.dcache.WriteReq_misses::.cpu.data      1284078                       # number of WriteReq misses
system.cpu.dcache.WriteReq_misses::total      1284078                       # number of WriteReq misses
system.cpu.dcache.WriteReq_mshr_miss_latency::.cpu.data 106247005000                       # number of WriteReq MSHR miss cycles
system.cpu.dcache.WriteReq_mshr_miss_latency::total 106247005000                       # number of WriteReq MSHR miss cycles
system.cpu.dcache.WriteReq_mshr_miss_rate::.cpu.data     0.072774                       # mshr miss rate for WriteReq accesses
system.cpu.dcache.WriteReq_mshr_miss_rate::total     0.072774                       # mshr miss rate for WriteReq accesses
system.cpu.dcache.WriteReq_mshr_misses::.cpu.data      1284078                       # number of WriteReq MSHR misses
system.cpu.dcache.WriteReq_mshr_misses::total      1284078                       # number of WriteReq MSHR misses
system.cpu.dcache.avg_blocked_cycles::no_mshrs    69.836347                       # average number of cycles each access was blocked
system.cpu.dcache.avg_blocked_cycles::no_targets          nan                       # average number of cycles each access was blocked
system.cpu.dcache.blocked::no_mshrs             20684                       # number of cycles access was blocked
system.cpu.dcache.blocked::no_targets               0                       # number of cycles access was blocked
system.cpu.dcache.blocked_cycles::no_mshrs      1444495                       # number of cycles access was blocked
system.cpu.dcache.blocked_cycles::no_targets            0                       # number of cycles access was blocked
system.cpu.dcache.demand_accesses::.cpu.data     64953253                       # number of demand (read+write) accesses
system.cpu.dcache.demand_accesses::total     64953253                       # number of demand (read+write) accesses
system.cpu.dcache.demand_avg_miss_latency::.cpu.data 76251.608771                       # average overall miss latency
system.cpu.dcache.demand_avg_miss_latency::total 76251.608771                       # average overall miss latency
system.cpu.dcache.demand_avg_mshr_miss_latency::.cpu.data 75251.608771                       # average overall mshr miss latency
system.cpu.dcache.demand_avg_mshr_miss_latency::total 75251.608771                       # average overall mshr miss latency
system.cpu.dcache.demand_hits::.cpu.data     62400683                       # number of demand (read+write) hits
system.cpu.dcache.demand_hits::total         62400683                       # number of demand (read+write) hits
system.cpu.dcache.demand_miss_latency::.cpu.data 194637569000                       # number of demand (read+write) miss cycles
system.cpu.dcache.demand_miss_latency::total 194637569000                       # number of demand (read+write) miss cycles
system.cpu.dcache.demand_miss_rate::.cpu.data     0.039299                       # miss rate for demand accesses
system.cpu.dcache.demand_miss_rate::total     0.039299                       # miss rate for demand accesses
system.cpu.dcache.demand_misses::.cpu.data      2552570                       # number of demand (read+write) misses
system.cpu.dcache.demand_misses::total        2552570                       # number of demand (read+write) misses
system.cpu.dcache.demand_mshr_miss_latency::.cpu.data 192084999000                       # number of demand (read+write) MSHR miss cycles
system.cpu.dcache.demand_mshr_miss_latency::total 192084999000                       # number of demand (read+write) MSHR miss cycles
system.cpu.dcache.demand_mshr_miss_rate::.cpu.data     0.039299                       # mshr miss rate for demand accesses
system.cpu.dcache.demand_mshr_miss_rate::total     0.039299                       # mshr miss rate for demand accesses
system.cpu.dcache.demand_mshr_misses::.cpu.data      2552570                       # number of demand (read+write) MSHR misses
system.cpu.dcache.demand_mshr_misses::total      2552570                       # number of demand (read+write) MSHR misses
system.cpu.dcache.overall_accesses::.cpu.data     65018789                       # number of overall (read+write) accesses
system.cpu.dcache.overall_accesses::total     65018789                       # number of overall (read+write) accesses
system.cpu.dcache.overall_avg_miss_latency::.cpu.data 74342.891006                       # average overall miss latency
system.cpu.dcache.overall_avg_miss_latency::total 74342.891006                       # average overall miss latency
system.cpu.dcache.overall_avg_mshr_miss_latency::.cpu.data 75695.485368                       # average overall mshr miss latency
system.cpu.dcache.overall_avg_mshr_miss_latency::total 75695.485368                       # average overall mshr miss latency
system.cpu.dcache.overall_hits::.cpu.data     62400683                       # number of overall hits
system.cpu.dcache.overall_hits::total        62400683                       # number of overall hits
system.cpu.dcache.overall_miss_latency::.cpu.data 194637569000                       # number of overall miss cycles
system.cpu.dcache.overall_miss_latency::total 194637569000                       # number of overall miss cycles
system.cpu.dcache.overall_miss_rate::.cpu.data     0.040267                       # miss rate for overall accesses
system.cpu.dcache.overall_miss_rate::total     0.040267                       # miss rate for overall accesses
system.cpu.dcache.overall_misses::.cpu.data      2618106                       # number of overall misses
system.cpu.dcache.overall_misses::total       2618106                       # number of overall misses
system.cpu.dcache.overall_mshr_miss_latency::.cpu.data 198178804415                       # number of overall MSHR miss cycles
system.cpu.dcache.overall_mshr_miss_latency::total 198178804415                       # number of overall MSHR miss cycles
system.cpu.dcache.overall_mshr_miss_rate::.cpu.data     0.040267                       # mshr miss rate for overall accesses
system.cpu.dcache.overall_mshr_miss_rate::total     0.040267                       # mshr miss rate for overall accesses
system.cpu.dcache.overall_mshr_misses::.cpu.data      2618106                       # number of overall MSHR misses
system.cpu.dcache.overall_mshr_misses::total      2618106                       # number of overall MSHR misses
system.cpu.dcache.pwrStateResidencyTicks::UNDEFINED 393552886500                       # Cumulative time (in ticks) in various power states
system.cpu.dcache.replacements                2617082                       # number of replacements
system.cpu.dcache.tags.age_task_id_blocks_1024::0           75                       # Occupied blocks per task id
system.cpu.dcache.tags.age_task_id_blocks_1024::1          322                       # Occupied blocks per task id
system.cpu.dcache.tags.age_task_id_blocks_1024::2          599                       # Occupied blocks per task id
system.cpu.dcache.tags.age_task_id_blocks_1024::3           27                       # Occupied blocks per task id
system.cpu.dcache.tags.age_task_id_blocks_1024::4            1                       # Occupied blocks per task id
system.cpu.dcache.tags.avg_refs             24.834284                       # Average number of references to valid blocks.
system.cpu.dcache.tags.data_accesses        132655684                       # Number of data accesses
system.cpu.dcache.tags.occ_blocks::.cpu.data   976.260864                       # Average occupied blocks per requestor
system.cpu.dcache.tags.occ_percent::.cpu.data     0.953380                       # Average percentage of cache occupancy
system.cpu.dcache.tags.occ_percent::total     0.953380                       # Average percentage of cache occupancy
system.cpu.dcache.tags.occ_task_id_blocks::1024         1024                       # Occupied blocks per task id
system.cpu.dcache.tags.occ_task_id_percent::1024            1                       # Percentage of cache occupancy per task id
system.cpu.dcache.tags.pwrStateResidencyTicks::UNDEFINED 393552886500                       # Cumulative time (in ticks) in various power states
system.cpu.dcache.tags.sampled_refs           2618106                       # Sample count of references to valid blocks.
system.cpu.dcache.tags.tag_accesses         132655684                       # Number of tag accesses
system.cpu.dcache.tags.tagsinuse           976.260864                       # Cycle average of tags in use
system.cpu.dcache.tags.total_refs            65018789                       # Total number of references to valid blocks.
system.cpu.dcache.tags.warmup_cycle            195500                       # Cycle when the warmup percentage was hit.
system.cpu.dcache.writebacks::.writebacks      1607115                       # number of writebacks
system.cpu.dcache.writebacks::total           1607115                       # number of writebacks
system.cpu.dtb.pwrStateResidencyTicks::UNDEFINED 393552886500                       # Cumulative time (in ticks) in various power states
system.cpu.dtb.rdAccesses                    47374171                       # TLB accesses on read requests
system.cpu.dtb.rdMisses                        154481                       # TLB misses on read requests
system.cpu.dtb.walker.pwrStateResidencyTicks::UNDEFINED 393552886500                       # Cumulative time (in ticks) in various power states
system.cpu.dtb.wrAccesses                    17644618                       # TLB accesses on write requests
system.cpu.dtb.wrMisses                        392711                       # TLB misses on write requests
system.cpu.dtb_walker_cache.avg_blocked_cycles::no_mshrs          nan                       # average number of cycles each access was blocked
system.cpu.dtb_walker_cache.avg_blocked_cycles::no_targets          nan                       # average number of cycles each access was blocked
system.cpu.dtb_walker_cache.blocked::no_mshrs            0                       # number of cycles access was blocked
system.cpu.dtb_walker_cache.blocked::no_targets            0                       # number of cycles access was blocked
system.cpu.dtb_walker_cache.blocked_cycles::no_mshrs            0                       # number of cycles access was blocked
system.cpu.dtb_walker_cache.blocked_cycles::no_targets            0                       # number of cycles access was blocked
system.cpu.dtb_walker_cache.pwrStateResidencyTicks::UNDEFINED 393552886500                       # Cumulative time (in ticks) in various power states
system.cpu.dtb_walker_cache.replacements            0                       # number of replacements
system.cpu.dtb_walker_cache.tags.avg_refs          nan                       # Average number of references to valid blocks.
system.cpu.dtb_walker_cache.tags.data_accesses            0                       # Number of data accesses
system.cpu.dtb_walker_cache.tags.pwrStateResidencyTicks::UNDEFINED 393552886500                       # Cumulative time (in ticks) in various power states
system.cpu.dtb_walker_cache.tags.sampled_refs            0                       # Sample count of references to valid blocks.
system.cpu.dtb_walker_cache.tags.tag_accesses            0                       # Number of tag accesses
system.cpu.dtb_walker_cache.tags.tagsinuse            0                       # Cycle average of tags in use
system.cpu.dtb_walker_cache.tags.total_refs            0                       # Total number of references to valid blocks.
system.cpu.dtb_walker_cache.tags.warmup_cycle            0                       # Cycle when the warmup percentage was hit.
system.cpu.icache.ReadReq_accesses::.cpu.inst    135711381                       # number of ReadReq accesses(hits+misses)
system.cpu.icache.ReadReq_accesses::total    135711381                       # number of ReadReq accesses(hits+misses)
system.cpu.icache.ReadReq_avg_miss_latency::.cpu.inst 88803.605313                       # average ReadReq miss latency
system.cpu.icache.ReadReq_avg_miss_latency::total 88803.605313                       # average ReadReq miss latency
system.cpu.icache.ReadReq_avg_mshr_miss_latency::.cpu.inst 87803.605313                       # average ReadReq mshr miss latency
system.cpu.icache.ReadReq_avg_mshr_miss_latency::total 87803.605313                       # average ReadReq mshr miss latency
system.cpu.icache.ReadReq_hits::.cpu.inst    135710854                       # number of ReadReq hits
system.cpu.icache.ReadReq_hits::total       135710854                       # number of ReadReq hits
system.cpu.icache.ReadReq_miss_latency::.cpu.inst     46799500                       # number of ReadReq miss cycles
system.cpu.icache.ReadReq_miss_latency::total     46799500                       # number of ReadReq miss cycles
system.cpu.icache.ReadReq_miss_rate::.cpu.inst     0.000004                       # miss rate for ReadReq accesses
system.cpu.icache.ReadReq_miss_rate::total     0.000004                       # miss rate for ReadReq accesses
system.cpu.icache.ReadReq_misses::.cpu.inst          527                       # number of ReadReq misses
system.cpu.icache.ReadReq_misses::total           527                       # number of ReadReq misses
system.cpu.icache.ReadReq_mshr_miss_latency::.cpu.inst     46272500                       # number of ReadReq MSHR miss cycles
system.cpu.icache.ReadReq_mshr_miss_latency::total     46272500                       # number of ReadReq MSHR miss cycles
system.cpu.icache.ReadReq_mshr_miss_rate::.cpu.inst     0.000004                       # mshr miss rate for ReadReq accesses
system.cpu.icache.ReadReq_mshr_miss_rate::total     0.000004                       # mshr miss rate for ReadReq accesses
system.cpu.icache.ReadReq_mshr_misses::.cpu.inst          527                       # number of ReadReq MSHR misses
system.cpu.icache.ReadReq_mshr_misses::total          527                       # number of ReadReq MSHR misses
system.cpu.icache.avg_blocked_cycles::no_mshrs          nan                       # average number of cycles each access was blocked
system.cpu.icache.avg_blocked_cycles::no_targets          nan                       # average number of cycles each access was blocked
system.cpu.icache.blocked::no_mshrs                 0                       # number of cycles access was blocked
system.cpu.icache.blocked::no_targets               0                       # number of cycles access was blocked
system.cpu.icache.blocked_cycles::no_mshrs            0                       # number of cycles access was blocked
system.cpu.icache.blocked_cycles::no_targets            0                       # number of cycles access was blocked
system.cpu.icache.demand_accesses::.cpu.inst    135711381                       # number of demand (read+write) accesses
system.cpu.icache.demand_accesses::total    135711381                       # number of demand (read+write) accesses
system.cpu.icache.demand_avg_miss_latency::.cpu.inst 88803.605313                       # average overall miss latency
system.cpu.icache.demand_avg_miss_latency::total 88803.605313                       # average overall miss latency
system.cpu.icache.demand_avg_mshr_miss_latency::.cpu.inst 87803.605313                       # average overall mshr miss latency
system.cpu.icache.demand_avg_mshr_miss_latency::total 87803.605313                       # average overall mshr miss latency
system.cpu.icache.demand_hits::.cpu.inst    135710854                       # number of demand (read+write) hits
system.cpu.icache.demand_hits::total        135710854                       # number of demand (read+write) hits
system.cpu.icache.demand_miss_latency::.cpu.inst     46799500                       # number of demand (read+write) miss cycles
system.cpu.icache.demand_miss_latency::total     46799500                       # number of demand (read+write) miss cycles
system.cpu.icache.demand_miss_rate::.cpu.inst     0.000004                       # miss rate for demand accesses
system.cpu.icache.demand_miss_rate::total     0.000004                       # miss rate for demand accesses
system.cpu.icache.demand_misses::.cpu.inst          527                       # number of demand (read+write) misses
system.cpu.icache.demand_misses::total            527                       # number of demand (read+write) misses
system.cpu.icache.demand_mshr_miss_latency::.cpu.inst     46272500                       # number of demand (read+write) MSHR miss cycles
system.cpu.icache.demand_mshr_miss_latency::total     46272500                       # number of demand (read+write) MSHR miss cycles
system.cpu.icache.demand_mshr_miss_rate::.cpu.inst     0.000004                       # mshr miss rate for demand accesses
system.cpu.icache.demand_mshr_miss_rate::total     0.000004                       # mshr miss rate for demand accesses
system.cpu.icache.demand_mshr_misses::.cpu.inst          527                       # number of demand (read+write) MSHR misses
system.cpu.icache.demand_mshr_misses::total          527                       # number of demand (read+write) MSHR misses
system.cpu.icache.overall_accesses::.cpu.inst    135711381                       # number of overall (read+write) accesses
system.cpu.icache.overall_accesses::total    135711381                       # number of overall (read+write) accesses
system.cpu.icache.overall_avg_miss_latency::.cpu.inst 88803.605313                       # average overall miss latency
system.cpu.icache.overall_avg_miss_latency::total 88803.605313                       # average overall miss latency
system.cpu.icache.overall_avg_mshr_miss_latency::.cpu.inst 87803.605313                       # average overall mshr miss latency
system.cpu.icache.overall_avg_mshr_miss_latency::total 87803.605313                       # average overall mshr miss latency
system.cpu.icache.overall_hits::.cpu.inst    135710854                       # number of overall hits
system.cpu.icache.overall_hits::total       135710854                       # number of overall hits
system.cpu.icache.overall_miss_latency::.cpu.inst     46799500                       # number of overall miss cycles
system.cpu.icache.overall_miss_latency::total     46799500                       # number of overall miss cycles
system.cpu.icache.overall_miss_rate::.cpu.inst     0.000004                       # miss rate for overall accesses
system.cpu.icache.overall_miss_rate::total     0.000004                       # miss rate for overall accesses
system.cpu.icache.overall_misses::.cpu.inst          527                       # number of overall misses
system.cpu.icache.overall_misses::total           527                       # number of overall misses
system.cpu.icache.overall_mshr_miss_latency::.cpu.inst     46272500                       # number of overall MSHR miss cycles
system.cpu.icache.overall_mshr_miss_latency::total     46272500                       # number of overall MSHR miss cycles
system.cpu.icache.overall_mshr_miss_rate::.cpu.inst     0.000004                       # mshr miss rate for overall accesses
system.cpu.icache.overall_mshr_miss_rate::total     0.000004                       # mshr miss rate for overall accesses
system.cpu.icache.overall_mshr_misses::.cpu.inst          527                       # number of overall MSHR misses
system.cpu.icache.overall_mshr_misses::total          527                       # number of overall MSHR misses
system.cpu.icache.pwrStateResidencyTicks::UNDEFINED 393552886500                       # Cumulative time (in ticks) in various power states
system.cpu.icache.replacements                      6                       # number of replacements
system.cpu.icache.tags.age_task_id_blocks_1024::4          521                       # Occupied blocks per task id
system.cpu.icache.tags.avg_refs          257516.851992                       # Average number of references to valid blocks.
system.cpu.icache.tags.data_accesses        271423289                       # Number of data accesses
system.cpu.icache.tags.occ_blocks::.cpu.inst   427.217252                       # Average occupied blocks per requestor
system.cpu.icache.tags.occ_percent::.cpu.inst     0.208602                       # Average percentage of cache occupancy
system.cpu.icache.tags.occ_percent::total     0.208602                       # Average percentage of cache occupancy
system.cpu.icache.tags.occ_task_id_blocks::1024          521                       # Occupied blocks per task id
system.cpu.icache.tags.occ_task_id_percent::1024     0.254395                       # Percentage of cache occupancy per task id
system.cpu.icache.tags.pwrStateResidencyTicks::UNDEFINED 393552886500                       # Cumulative time (in ticks) in various power states
system.cpu.icache.tags.sampled_refs               527                       # Sample count of references to valid blocks.
system.cpu.icache.tags.tag_accesses         271423289                       # Number of tag accesses
system.cpu.icache.tags.tagsinuse           427.217252                       # Cycle average of tags in use
system.cpu.icache.tags.total_refs           135711381                       # Total number of references to valid blocks.
system.cpu.icache.tags.warmup_cycle             87500                       # Cycle when the warmup percentage was hit.
system.cpu.icache.writebacks::.writebacks            6                       # number of writebacks
system.cpu.icache.writebacks::total                 6                       # number of writebacks
system.cpu.idle_fraction                            0                       # Percentage of idle cycles
system.cpu.interrupts.pwrStateResidencyTicks::UNDEFINED 393552886500                       # Cumulative time (in ticks) in various power states
system.cpu.itb.pwrStateResidencyTicks::UNDEFINED 393552886500                       # Cumulative time (in ticks) in various power states
system.cpu.itb.rdAccesses                           0                       # TLB accesses on read requests
system.cpu.itb.rdMisses                             0                       # TLB misses on read requests
system.cpu.itb.walker.pwrStateResidencyTicks::UNDEFINED 393552886500                       # Cumulative time (in ticks) in various power states
system.cpu.itb.wrAccesses                   135711381                       # TLB accesses on write requests
system.cpu.itb.wrMisses                            47                       # TLB misses on write requests
system.cpu.itb_walker_cache.avg_blocked_cycles::no_mshrs          nan                       # average number of cycles each access was blocked
system.cpu.itb_walker_cache.avg_blocked_cycles::no_targets          nan                       # average number of cycles each access was blocked
system.cpu.itb_walker_cache.blocked::no_mshrs            0                       # number of cycles access was blocked
system.cpu.itb_walker_cache.blocked::no_targets            0                       # number of cycles access was blocked
system.cpu.itb_walker_cache.blocked_cycles::no_mshrs            0                       # number of cycles access was blocked
system.cpu.itb_walker_cache.blocked_cycles::no_targets            0                       # number of cycles access was blocked
system.cpu.itb_walker_cache.pwrStateResidencyTicks::UNDEFINED 393552886500                       # Cumulative time (in ticks) in various power states
system.cpu.itb_walker_cache.replacements            0                       # number of replacements
system.cpu.itb_walker_cache.tags.avg_refs          nan                       # Average number of references to valid blocks.
system.cpu.itb_walker_cache.tags.data_accesses            0                       # Number of data accesses
system.cpu.itb_walker_cache.tags.pwrStateResidencyTicks::UNDEFINED 393552886500                       # Cumulative time (in ticks) in various power states
system.cpu.itb_walker_cache.tags.sampled_refs            0                       # Sample count of references to valid blocks.
system.cpu.itb_walker_cache.tags.tag_accesses            0                       # Number of tag accesses
system.cpu.itb_walker_cache.tags.tagsinuse            0                       # Cycle average of tags in use
system.cpu.itb_walker_cache.tags.total_refs            0                       # Total number of references to valid blocks.
system.cpu.itb_walker_cache.tags.warmup_cycle            0                       # Cycle when the warmup percentage was hit.
system.cpu.not_idle_fraction                        1                       # Percentage of non-idle cycles
system.cpu.numCycles                        787105773                       # number of cpu cycles simulated
system.cpu.numWorkItemsCompleted                    0                       # number of work items this cpu completed
system.cpu.numWorkItemsStarted                      0                       # number of work items this cpu started
system.cpu.num_busy_cycles                  787105773                       # Number of busy cycles
system.cpu.num_cc_register_reads             26576152                       # number of times the CC registers were read
system.cpu.num_cc_register_writes            36968375                       # number of times the CC registers were written
system.cpu.num_conditional_control_insts      3953451                       # number of instructions that are conditional controls
system.cpu.num_fp_alu_accesses                    835                       # Number of float alu accesses
system.cpu.num_fp_insts                           835                       # number of float instructions
system.cpu.num_fp_register_reads                 1311                       # number of times the floating registers were read
system.cpu.num_fp_register_writes                 577                       # number of times the floating registers were written
system.cpu.num_func_calls                       69322                       # number of times a function call or return occured
system.cpu.num_idle_cycles                          0                       # Number of idle cycles
system.cpu.num_int_alu_accesses             124833182                       # Number of integer alu accesses
system.cpu.num_int_insts                    124833182                       # number of integer instructions
system.cpu.num_int_register_reads           314540083                       # number of times the integer registers were read
system.cpu.num_int_register_writes          102332169                       # number of times the integer registers were written
system.cpu.num_load_insts                    47374160                       # Number of load instructions
system.cpu.num_mem_refs                      65018778                       # number of memory refs
system.cpu.num_store_insts                   17644618                       # Number of store instructions
system.cpu.num_vec_alu_accesses                     0                       # Number of vector alu accesses
system.cpu.num_vec_insts                            0                       # number of vector instructions
system.cpu.num_vec_register_reads                   0                       # number of times the vector registers were read
system.cpu.num_vec_register_writes                  0                       # number of times the vector registers were written
system.cpu.op_class::No_OpClass                960292      0.76%      0.76% # Class of executed instruction
system.cpu.op_class::IntAlu                  59683576     47.45%     48.21% # Class of executed instruction
system.cpu.op_class::IntMult                   130946      0.10%     48.31% # Class of executed instruction
system.cpu.op_class::IntDiv                        70      0.00%     48.31% # Class of executed instruction
system.cpu.op_class::FloatAdd                      21      0.00%     48.31% # Class of executed instruction
system.cpu.op_class::FloatCmp                       0      0.00%     48.31% # Class of executed instruction
system.cpu.op_class::FloatCvt                       0      0.00%     48.31% # Class of executed instruction
system.cpu.op_class::FloatMult                      0      0.00%     48.31% # Class of executed instruction
system.cpu.op_class::FloatMultAcc                   0      0.00%     48.31% # Class of executed instruction
system.cpu.op_class::FloatDiv                       0      0.00%     48.31% # Class of executed instruction
system.cpu.op_class::FloatMisc                      0      0.00%     48.31% # Class of executed instruction
system.cpu.op_class::FloatSqrt                      0      0.00%     48.31% # Class of executed instruction
system.cpu.op_class::SimdAdd                        0      0.00%     48.31% # Class of executed instruction
system.cpu.op_class::SimdAddAcc                     0      0.00%     48.31% # Class of executed instruction
system.cpu.op_class::SimdAlu                      142      0.00%     48.31% # Class of executed instruction
system.cpu.op_class::SimdCmp                        0      0.00%     48.31% # Class of executed instruction
system.cpu.op_class::SimdCvt                      126      0.00%     48.31% # Class of executed instruction
system.cpu.op_class::SimdMisc                     241      0.00%     48.31% # Class of executed instruction
system.cpu.op_class::SimdMult                       0      0.00%     48.31% # Class of executed instruction
system.cpu.op_class::SimdMultAcc                    0      0.00%     48.31% # Class of executed instruction
system.cpu.op_class::SimdShift                      0      0.00%     48.31% # Class of executed instruction
system.cpu.op_class::SimdShiftAcc                   0      0.00%     48.31% # Class of executed instruction
system.cpu.op_class::SimdDiv                        0      0.00%     48.31% # Class of executed instruction
system.cpu.op_class::SimdSqrt                       0      0.00%     48.31% # Class of executed instruction
system.cpu.op_class::SimdFloatAdd                   0      0.00%     48.31% # Class of executed instruction
system.cpu.op_class::SimdFloatAlu                   0      0.00%     48.31% # Class of executed instruction
system.cpu.op_class::SimdFloatCmp                   0      0.00%     48.31% # Class of executed instruction
system.cpu.op_class::SimdFloatCvt                   0      0.00%     48.31% # Class of executed instruction
system.cpu.op_class::SimdFloatDiv                   0      0.00%     48.31% # Class of executed instruction
system.cpu.op_class::SimdFloatMisc                  0      0.00%     48.31% # Class of executed instruction
system.cpu.op_class::SimdFloatMult                  0      0.00%     48.31% # Class of executed instruction
system.cpu.op_class::SimdFloatMultAcc               0      0.00%     48.31% # Class of executed instruction
system.cpu.op_class::SimdFloatSqrt                  0      0.00%     48.31% # Class of executed instruction
system.cpu.op_class::SimdReduceAdd                  0      0.00%     48.31% # Class of executed instruction
system.cpu.op_class::SimdReduceAlu                  0      0.00%     48.31% # Class of executed instruction
system.cpu.op_class::SimdReduceCmp                  0      0.00%     48.31% # Class of executed instruction
system.cpu.op_class::SimdFloatReduceAdd             0      0.00%     48.31% # Class of executed instruction
system.cpu.op_class::SimdFloatReduceCmp             0      0.00%     48.31% # Class of executed instruction
system.cpu.op_class::SimdAes                        0      0.00%     48.31% # Class of executed instruction
system.cpu.op_class::SimdAesMix                     0      0.00%     48.31% # Class of executed instruction
system.cpu.op_class::SimdSha1Hash                   0      0.00%     48.31% # Class of executed instruction
system.cpu.op_class::SimdSha1Hash2                  0      0.00%     48.31% # Class of executed instruction
system.cpu.op_class::SimdSha256Hash                 0      0.00%     48.31% # Class of executed instruction
system.cpu.op_class::SimdSha256Hash2                0      0.00%     48.31% # Class of executed instruction
system.cpu.op_class::SimdShaSigma2                  0      0.00%     48.31% # Class of executed instruction
system.cpu.op_class::SimdShaSigma3                  0      0.00%     48.31% # Class of executed instruction
system.cpu.op_class::SimdPredAlu                    0      0.00%     48.31% # Class of executed instruction
system.cpu.op_class::MemRead                 47374078     37.66%     85.97% # Class of executed instruction
system.cpu.op_class::MemWrite                17644454     14.03%    100.00% # Class of executed instruction
system.cpu.op_class::FloatMemRead                  82      0.00%    100.00% # Class of executed instruction
system.cpu.op_class::FloatMemWrite                164      0.00%    100.00% # Class of executed instruction
system.cpu.op_class::IprAccess                      0      0.00%    100.00% # Class of executed instruction
system.cpu.op_class::InstPrefetch                   0      0.00%    100.00% # Class of executed instruction
system.cpu.op_class::total                  125794192                       # Class of executed instruction
system.cpu.pwrStateResidencyTicks::ON    393552886500                       # Cumulative time (in ticks) in various power states
system.cpu.workload.numSyscalls                    89                       # Number of system calls
system.cpu_clk_domain.clock                       500                       # Clock period in ticks
system.cpu_voltage_domain.voltage                   1                       # Voltage in Volts
system.l2.CleanEvict_mshr_miss_rate::.writebacks          inf                       # mshr miss rate for CleanEvict accesses
system.l2.CleanEvict_mshr_miss_rate::total          inf                       # mshr miss rate for CleanEvict accesses
system.l2.CleanEvict_mshr_misses::.writebacks        54797                       # number of CleanEvict MSHR misses
system.l2.CleanEvict_mshr_misses::total         54797                       # number of CleanEvict MSHR misses
system.l2.ReadCleanReq_accesses::.cpu.inst          527                       # number of ReadCleanReq accesses(hits+misses)
system.l2.ReadCleanReq_accesses::total            527                       # number of ReadCleanReq accesses(hits+misses)
system.l2.ReadCleanReq_avg_miss_latency::.cpu.inst 86445.817490                       # average ReadCleanReq miss latency
system.l2.ReadCleanReq_avg_miss_latency::total 86445.817490                       # average ReadCleanReq miss latency
system.l2.ReadCleanReq_avg_mshr_miss_latency::.cpu.inst 76445.817490                       # average ReadCleanReq mshr miss latency
system.l2.ReadCleanReq_avg_mshr_miss_latency::total 76445.817490                       # average ReadCleanReq mshr miss latency
system.l2.ReadCleanReq_hits::.cpu.inst              1                       # number of ReadCleanReq hits
system.l2.ReadCleanReq_hits::total                  1                       # number of ReadCleanReq hits
system.l2.ReadCleanReq_miss_latency::.cpu.inst     45470500                       # number of ReadCleanReq miss cycles
system.l2.ReadCleanReq_miss_latency::total     45470500                       # number of ReadCleanReq miss cycles
system.l2.ReadCleanReq_miss_rate::.cpu.inst     0.998102                       # miss rate for ReadCleanReq accesses
system.l2.ReadCleanReq_miss_rate::total      0.998102                       # miss rate for ReadCleanReq accesses
system.l2.ReadCleanReq_misses::.cpu.inst          526                       # number of ReadCleanReq misses
system.l2.ReadCleanReq_misses::total              526                       # number of ReadCleanReq misses
system.l2.ReadCleanReq_mshr_miss_latency::.cpu.inst     40210500                       # number of ReadCleanReq MSHR miss cycles
system.l2.ReadCleanReq_mshr_miss_latency::total     40210500                       # number of ReadCleanReq MSHR miss cycles
system.l2.ReadCleanReq_mshr_miss_rate::.cpu.inst     0.998102                       # mshr miss rate for ReadCleanReq accesses
system.l2.ReadCleanReq_mshr_miss_rate::total     0.998102                       # mshr miss rate for ReadCleanReq accesses
system.l2.ReadCleanReq_mshr_misses::.cpu.inst          526                       # number of ReadCleanReq MSHR misses
system.l2.ReadCleanReq_mshr_misses::total          526                       # number of ReadCleanReq MSHR misses
system.l2.ReadExReq_accesses::.cpu.data       1284078                       # number of ReadExReq accesses(hits+misses)
system.l2.ReadExReq_accesses::total           1284078                       # number of ReadExReq accesses(hits+misses)
system.l2.ReadExReq_avg_miss_latency::.cpu.data 88292.863009                       # average ReadExReq miss latency
system.l2.ReadExReq_avg_miss_latency::total 88292.863009                       # average ReadExReq miss latency
system.l2.ReadExReq_avg_mshr_miss_latency::.cpu.data 78292.863009                       # average ReadExReq mshr miss latency
system.l2.ReadExReq_avg_mshr_miss_latency::total 78292.863009                       # average ReadExReq mshr miss latency
system.l2.ReadExReq_hits::.cpu.data            116387                       # number of ReadExReq hits
system.l2.ReadExReq_hits::total                116387                       # number of ReadExReq hits
system.l2.ReadExReq_miss_latency::.cpu.data 103098781500                       # number of ReadExReq miss cycles
system.l2.ReadExReq_miss_latency::total  103098781500                       # number of ReadExReq miss cycles
system.l2.ReadExReq_miss_rate::.cpu.data     0.909361                       # miss rate for ReadExReq accesses
system.l2.ReadExReq_miss_rate::total         0.909361                       # miss rate for ReadExReq accesses
system.l2.ReadExReq_misses::.cpu.data         1167691                       # number of ReadExReq misses
system.l2.ReadExReq_misses::total             1167691                       # number of ReadExReq misses
system.l2.ReadExReq_mshr_miss_latency::.cpu.data  91421871500                       # number of ReadExReq MSHR miss cycles
system.l2.ReadExReq_mshr_miss_latency::total  91421871500                       # number of ReadExReq MSHR miss cycles
system.l2.ReadExReq_mshr_miss_rate::.cpu.data     0.909361                       # mshr miss rate for ReadExReq accesses
system.l2.ReadExReq_mshr_miss_rate::total     0.909361                       # mshr miss rate for ReadExReq accesses
system.l2.ReadExReq_mshr_misses::.cpu.data      1167691                       # number of ReadExReq MSHR misses
system.l2.ReadExReq_mshr_misses::total        1167691                       # number of ReadExReq MSHR misses
system.l2.ReadSharedReq_accesses::.cpu.data      1334028                       # number of ReadSharedReq accesses(hits+misses)
system.l2.ReadSharedReq_accesses::total       1334028                       # number of ReadSharedReq accesses(hits+misses)
system.l2.ReadSharedReq_avg_miss_latency::.cpu.data 82156.915561                       # average ReadSharedReq miss latency
system.l2.ReadSharedReq_avg_miss_latency::total 82156.915561                       # average ReadSharedReq miss latency
system.l2.ReadSharedReq_avg_mshr_miss_latency::.cpu.data 72156.915561                       # average ReadSharedReq mshr miss latency
system.l2.ReadSharedReq_avg_mshr_miss_latency::total 72156.915561                       # average ReadSharedReq mshr miss latency
system.l2.ReadSharedReq_hits::.cpu.data        274490                       # number of ReadSharedReq hits
system.l2.ReadSharedReq_hits::total            274490                       # number of ReadSharedReq hits
system.l2.ReadSharedReq_miss_latency::.cpu.data  87048374000                       # number of ReadSharedReq miss cycles
system.l2.ReadSharedReq_miss_latency::total  87048374000                       # number of ReadSharedReq miss cycles
system.l2.ReadSharedReq_miss_rate::.cpu.data     0.794240                       # miss rate for ReadSharedReq accesses
system.l2.ReadSharedReq_miss_rate::total     0.794240                       # miss rate for ReadSharedReq accesses
system.l2.ReadSharedReq_misses::.cpu.data      1059538                       # number of ReadSharedReq misses
system.l2.ReadSharedReq_misses::total         1059538                       # number of ReadSharedReq misses
system.l2.ReadSharedReq_mshr_miss_latency::.cpu.data  76452994000                       # number of ReadSharedReq MSHR miss cycles
system.l2.ReadSharedReq_mshr_miss_latency::total  76452994000                       # number of ReadSharedReq MSHR miss cycles
system.l2.ReadSharedReq_mshr_miss_rate::.cpu.data     0.794240                       # mshr miss rate for ReadSharedReq accesses
system.l2.ReadSharedReq_mshr_miss_rate::total     0.794240                       # mshr miss rate for ReadSharedReq accesses
system.l2.ReadSharedReq_mshr_misses::.cpu.data      1059538                       # number of ReadSharedReq MSHR misses
system.l2.ReadSharedReq_mshr_misses::total      1059538                       # number of ReadSharedReq MSHR misses
system.l2.WritebackClean_accesses::.writebacks            6                       # number of WritebackClean accesses(hits+misses)
system.l2.WritebackClean_accesses::total            6                       # number of WritebackClean accesses(hits+misses)
system.l2.WritebackClean_hits::.writebacks            6                       # number of WritebackClean hits
system.l2.WritebackClean_hits::total                6                       # number of WritebackClean hits
system.l2.WritebackDirty_accesses::.writebacks      1607115                       # number of WritebackDirty accesses(hits+misses)
system.l2.WritebackDirty_accesses::total      1607115                       # number of WritebackDirty accesses(hits+misses)
system.l2.WritebackDirty_hits::.writebacks      1607115                       # number of WritebackDirty hits
system.l2.WritebackDirty_hits::total          1607115                       # number of WritebackDirty hits
system.l2.avg_blocked_cycles::no_mshrs            nan                       # average number of cycles each access was blocked
system.l2.avg_blocked_cycles::no_targets          nan                       # average number of cycles each access was blocked
system.l2.blocked::no_mshrs                         0                       # number of cycles access was blocked
system.l2.blocked::no_targets                       0                       # number of cycles access was blocked
system.l2.blocked_cycles::no_mshrs                  0                       # number of cycles access was blocked
system.l2.blocked_cycles::no_targets                0                       # number of cycles access was blocked
system.l2.demand_accesses::.cpu.inst              527                       # number of demand (read+write) accesses
system.l2.demand_accesses::.cpu.data          2618106                       # number of demand (read+write) accesses
system.l2.demand_accesses::total              2618633                       # number of demand (read+write) accesses
system.l2.demand_avg_miss_latency::.cpu.inst 86445.817490                       # average overall miss latency
system.l2.demand_avg_miss_latency::.cpu.data 85373.868381                       # average overall miss latency
system.l2.demand_avg_miss_latency::total 85374.121481                       # average overall miss latency
system.l2.demand_avg_mshr_miss_latency::.cpu.inst 76445.817490                       # average overall mshr miss latency
system.l2.demand_avg_mshr_miss_latency::.cpu.data 75373.868381                       # average overall mshr miss latency
system.l2.demand_avg_mshr_miss_latency::total 75374.121481                       # average overall mshr miss latency
system.l2.demand_hits::.cpu.inst                    1                       # number of demand (read+write) hits
system.l2.demand_hits::.cpu.data               390877                       # number of demand (read+write) hits
system.l2.demand_hits::total                   390878                       # number of demand (read+write) hits
system.l2.demand_miss_latency::.cpu.inst     45470500                       # number of demand (read+write) miss cycles
system.l2.demand_miss_latency::.cpu.data 190147155500                       # number of demand (read+write) miss cycles
system.l2.demand_miss_latency::total     190192626000                       # number of demand (read+write) miss cycles
system.l2.demand_miss_rate::.cpu.inst        0.998102                       # miss rate for demand accesses
system.l2.demand_miss_rate::.cpu.data        0.850702                       # miss rate for demand accesses
system.l2.demand_miss_rate::total            0.850732                       # miss rate for demand accesses
system.l2.demand_misses::.cpu.inst                526                       # number of demand (read+write) misses
system.l2.demand_misses::.cpu.data            2227229                       # number of demand (read+write) misses
system.l2.demand_misses::total                2227755                       # number of demand (read+write) misses
system.l2.demand_mshr_miss_latency::.cpu.inst     40210500                       # number of demand (read+write) MSHR miss cycles
system.l2.demand_mshr_miss_latency::.cpu.data 167874865500                       # number of demand (read+write) MSHR miss cycles
system.l2.demand_mshr_miss_latency::total 167915076000                       # number of demand (read+write) MSHR miss cycles
system.l2.demand_mshr_miss_rate::.cpu.inst     0.998102                       # mshr miss rate for demand accesses
system.l2.demand_mshr_miss_rate::.cpu.data     0.850702                       # mshr miss rate for demand accesses
system.l2.demand_mshr_miss_rate::total       0.850732                       # mshr miss rate for demand accesses
system.l2.demand_mshr_misses::.cpu.inst           526                       # number of demand (read+write) MSHR misses
system.l2.demand_mshr_misses::.cpu.data       2227229                       # number of demand (read+write) MSHR misses
system.l2.demand_mshr_misses::total           2227755                       # number of demand (read+write) MSHR misses
system.l2.overall_accesses::.cpu.inst             527                       # number of overall (read+write) accesses
system.l2.overall_accesses::.cpu.data         2618106                       # number of overall (read+write) accesses
system.l2.overall_accesses::total             2618633                       # number of overall (read+write) accesses
system.l2.overall_avg_miss_latency::.cpu.inst 86445.817490                       # average overall miss latency
system.l2.overall_avg_miss_latency::.cpu.data 85373.868381                       # average overall miss latency
system.l2.overall_avg_miss_latency::total 85374.121481                       # average overall miss latency
system.l2.overall_avg_mshr_miss_latency::.cpu.inst 76445.817490                       # average overall mshr miss latency
system.l2.overall_avg_mshr_miss_latency::.cpu.data 75373.868381                       # average overall mshr miss latency
system.l2.overall_avg_mshr_miss_latency::total 75374.121481                       # average overall mshr miss latency
system.l2.overall_hits::.cpu.inst                   1                       # number of overall hits
system.l2.overall_hits::.cpu.data              390877                       # number of overall hits
system.l2.overall_hits::total                  390878                       # number of overall hits
system.l2.overall_miss_latency::.cpu.inst     45470500                       # number of overall miss cycles
system.l2.overall_miss_latency::.cpu.data 190147155500                       # number of overall miss cycles
system.l2.overall_miss_latency::total    190192626000                       # number of overall miss cycles
system.l2.overall_miss_rate::.cpu.inst       0.998102                       # miss rate for overall accesses
system.l2.overall_miss_rate::.cpu.data       0.850702                       # miss rate for overall accesses
system.l2.overall_miss_rate::total           0.850732                       # miss rate for overall accesses
system.l2.overall_misses::.cpu.inst               526                       # number of overall misses
system.l2.overall_misses::.cpu.data           2227229                       # number of overall misses
system.l2.overall_misses::total               2227755                       # number of overall misses
system.l2.overall_mshr_miss_latency::.cpu.inst     40210500                       # number of overall MSHR miss cycles
system.l2.overall_mshr_miss_latency::.cpu.data 167874865500                       # number of overall MSHR miss cycles
system.l2.overall_mshr_miss_latency::total 167915076000                       # number of overall MSHR miss cycles
system.l2.overall_mshr_miss_rate::.cpu.inst     0.998102                       # mshr miss rate for overall accesses
system.l2.overall_mshr_miss_rate::.cpu.data     0.850702                       # mshr miss rate for overall accesses
system.l2.overall_mshr_miss_rate::total      0.850732                       # mshr miss rate for overall accesses
system.l2.overall_mshr_misses::.cpu.inst          526                       # number of overall MSHR misses
system.l2.overall_mshr_misses::.cpu.data      2227229                       # number of overall MSHR misses
system.l2.overall_mshr_misses::total          2227755                       # number of overall MSHR misses
system.l2.pwrStateResidencyTicks::UNDEFINED 393552886500                       # Cumulative time (in ticks) in various power states
system.l2.replacements                        2229909                       # number of replacements
system.l2.tags.age_task_id_blocks_1024::0           21                       # Occupied blocks per task id
system.l2.tags.age_task_id_blocks_1024::1          113                       # Occupied blocks per task id
system.l2.tags.age_task_id_blocks_1024::2         1108                       # Occupied blocks per task id
system.l2.tags.age_task_id_blocks_1024::3         7053                       # Occupied blocks per task id
system.l2.tags.age_task_id_blocks_1024::4         8089                       # Occupied blocks per task id
system.l2.tags.avg_refs                      2.306432                       # Average number of references to valid blocks.
system.l2.tags.data_accesses                  7482013                       # Number of data accesses
system.l2.tags.occ_blocks::.writebacks     147.890200                       # Average occupied blocks per requestor
system.l2.tags.occ_blocks::.cpu.inst        20.154108                       # Average occupied blocks per requestor
system.l2.tags.occ_blocks::.cpu.data     15320.095011                       # Average occupied blocks per requestor
system.l2.tags.occ_percent::.writebacks      0.009027                       # Average percentage of cache occupancy
system.l2.tags.occ_percent::.cpu.inst        0.001230                       # Average percentage of cache occupancy
system.l2.tags.occ_percent::.cpu.data        0.935064                       # Average percentage of cache occupancy
system.l2.tags.occ_percent::total            0.945321                       # Average percentage of cache occupancy
system.l2.tags.occ_task_id_blocks::1024         16384                       # Occupied blocks per task id
system.l2.tags.occ_task_id_percent::1024            1                       # Percentage of cache occupancy per task id
system.l2.tags.pwrStateResidencyTicks::UNDEFINED 393552886500                       # Cumulative time (in ticks) in various power states
system.l2.tags.sampled_refs                   2246293                       # Sample count of references to valid blocks.
system.l2.tags.tag_accesses                   7482013                       # Number of tag accesses
system.l2.tags.tagsinuse                 15488.139318                       # Cycle average of tags in use
system.l2.tags.total_refs                     5180923                       # Total number of references to valid blocks.
system.l2.tags.warmup_cycle                     77000                       # Cycle when the warmup percentage was hit.
system.l2.writebacks::.writebacks             1203387                       # number of writebacks
system.l2.writebacks::total                   1203387                       # number of writebacks
system.mem_ctrls.avgBusLat                    5000.00                       # Average bus latency per DRAM burst
system.mem_ctrls.avgGap                     114700.21                       # Average gap between requests
system.mem_ctrls.avgMemAccLat                34602.39                       # Average memory access latency per DRAM burst
system.mem_ctrls.avgPriority_.writebacks::samples   1203295.00                       # Average QoS priority value for accepted requests
system.mem_ctrls.avgPriority_.cpu.inst::samples       526.00                       # Average QoS priority value for accepted requests
system.mem_ctrls.avgPriority_.cpu.data::samples   2225866.00                       # Average QoS priority value for accepted requests
system.mem_ctrls.avgQLat                     15852.39                       # Average queueing delay per DRAM burst
system.mem_ctrls.avgRdBW                       362.06                       # Average DRAM read bandwidth in MiByte/s
system.mem_ctrls.avgRdBWSys                    362.28                       # Average system read bandwidth in MiByte/s
system.mem_ctrls.avgRdQLen                       1.01                       # Average read queue length when enqueuing
system.mem_ctrls.avgWrBW                       195.68                       # Average achieved write bandwidth in MiByte/s
system.mem_ctrls.avgWrBWSys                    195.70                       # Average system write bandwidth in MiByte/s
system.mem_ctrls.avgWrQLen                      25.81                       # Average write queue length when enqueuing
system.mem_ctrls.busUtil                         4.36                       # Data bus utilization in percentage
system.mem_ctrls.busUtilRead                     2.83                       # Data bus utilization in percentage for reads
system.mem_ctrls.busUtilWrite                    1.53                       # Data bus utilization in percentage for writes
system.mem_ctrls.bw_inst_read::.cpu.inst        85539                       # Instruction read bandwidth from this memory (bytes/s)
system.mem_ctrls.bw_inst_read::total            85539                       # Instruction read bandwidth from this memory (bytes/s)
system.mem_ctrls.bw_read::.cpu.inst             85539                       # Total read bandwidth from this memory (bytes/s)
system.mem_ctrls.bw_read::.cpu.data         362194411                       # Total read bandwidth from this memory (bytes/s)
system.mem_ctrls.bw_read::total             362279950                       # Total read bandwidth from this memory (bytes/s)
system.mem_ctrls.bw_total::.writebacks      195696108                       # Total bandwidth to/from this memory (bytes/s)
system.mem_ctrls.bw_total::.cpu.inst            85539                       # Total bandwidth to/from this memory (bytes/s)
system.mem_ctrls.bw_total::.cpu.data        362194411                       # Total bandwidth to/from this memory (bytes/s)
system.mem_ctrls.bw_total::total            557976057                       # Total bandwidth to/from this memory (bytes/s)
system.mem_ctrls.bw_write::.writebacks      195696108                       # Write bandwidth from this memory (bytes/s)
system.mem_ctrls.bw_write::total            195696108                       # Write bandwidth from this memory (bytes/s)
system.mem_ctrls.bytesPerActivate::samples       439536                       # Bytes accessed per row activation
system.mem_ctrls.bytesPerActivate::mean    499.386553                       # Bytes accessed per row activation
system.mem_ctrls.bytesPerActivate::gmean   301.278337                       # Bytes accessed per row activation
system.mem_ctrls.bytesPerActivate::stdev   396.509357                       # Bytes accessed per row activation
system.mem_ctrls.bytesPerActivate::0-127       126915     28.87%     28.87% # Bytes accessed per row activation
system.mem_ctrls.bytesPerActivate::128-255        37992      8.64%     37.52% # Bytes accessed per row activation
system.mem_ctrls.bytesPerActivate::256-383        35873      8.16%     45.68% # Bytes accessed per row activation
system.mem_ctrls.bytesPerActivate::384-511        18213      4.14%     49.82% # Bytes accessed per row activation
system.mem_ctrls.bytesPerActivate::512-639        61997     14.11%     63.93% # Bytes accessed per row activation
system.mem_ctrls.bytesPerActivate::640-767         7522      1.71%     65.64% # Bytes accessed per row activation
system.mem_ctrls.bytesPerActivate::768-895        15097      3.43%     69.07% # Bytes accessed per row activation
system.mem_ctrls.bytesPerActivate::896-1023         6152      1.40%     70.47% # Bytes accessed per row activation
system.mem_ctrls.bytesPerActivate::1024-1151       129775     29.53%    100.00% # Bytes accessed per row activation
system.mem_ctrls.bytesPerActivate::total       439536                       # Bytes accessed per row activation
system.mem_ctrls.bytesReadDRAM              142489088                       # Total number of bytes read from DRAM
system.mem_ctrls.bytesReadSys               142576320                       # Total read bytes from the system interface side
system.mem_ctrls.bytesReadWrQ                   87232                       # Total number of bytes read from write queue
system.mem_ctrls.bytesWritten                77009920                       # Total number of bytes written to DRAM
system.mem_ctrls.bytesWrittenSys             77016768                       # Total written bytes from the system interface side
system.mem_ctrls.bytes_inst_read::.cpu.inst        33664                       # Number of instructions bytes read from this memory
system.mem_ctrls.bytes_inst_read::total         33664                       # Number of instructions bytes read from this memory
system.mem_ctrls.bytes_read::.cpu.inst          33664                       # Number of bytes read from this memory
system.mem_ctrls.bytes_read::.cpu.data      142542656                       # Number of bytes read from this memory
system.mem_ctrls.bytes_read::total          142576320                       # Number of bytes read from this memory
system.mem_ctrls.bytes_written::.writebacks     77016768                       # Number of bytes written to this memory
system.mem_ctrls.bytes_written::total        77016768                       # Number of bytes written to this memory
system.mem_ctrls.masterReadAccesses::.cpu.inst          526                       # Per-master read serviced memory accesses
system.mem_ctrls.masterReadAccesses::.cpu.data      2227229                       # Per-master read serviced memory accesses
system.mem_ctrls.masterReadAvgLat::.cpu.inst     35622.15                       # Per-master read average memory access latency
system.mem_ctrls.masterReadAvgLat::.cpu.data     34580.98                       # Per-master read average memory access latency
system.mem_ctrls.masterReadBytes::.cpu.inst        33664                       # Per-master bytes read from memory
system.mem_ctrls.masterReadBytes::.cpu.data    142455424                       # Per-master bytes read from memory
system.mem_ctrls.masterReadRate::.cpu.inst 85538.694174969554                       # Per-master bytes read from memory rate (Bytes/sec)
system.mem_ctrls.masterReadRate::.cpu.data 361972758.647267639637                       # Per-master bytes read from memory rate (Bytes/sec)
system.mem_ctrls.masterReadTotalLat::.cpu.inst     18737250                       # Per-master read total memory access latency
system.mem_ctrls.masterReadTotalLat::.cpu.data  77019757847                       # Per-master read total memory access latency
system.mem_ctrls.masterWriteAccesses::.writebacks      1203387                       # Per-master write serviced memory accesses
system.mem_ctrls.masterWriteAvgLat::.writebacks   8181247.79                       # Per-master write average memory access latency
system.mem_ctrls.masterWriteBytes::.writebacks     77009920                       # Per-master bytes write to memory
system.mem_ctrls.masterWriteRate::.writebacks 195678707.085280150175                       # Per-master bytes write to memory rate (Bytes/sec)
system.mem_ctrls.masterWriteTotalLat::.writebacks 9845207236270                       # Per-master write total memory access latency
system.mem_ctrls.mergedWrBursts                    92                       # Number of DRAM write bursts merged with an existing one
system.mem_ctrls.neitherReadNorWriteReqs            0                       # Number of requests that are neither read nor write
system.mem_ctrls.numRdRetry                         0                       # Number of times read queue was full causing retry
system.mem_ctrls.numReadWriteTurnArounds        74639                       # Number of turnarounds from READ to WRITE
system.mem_ctrls.numStayReadState             5654442                       # Number of times bus staying in READ state
system.mem_ctrls.numStayWriteState            1131928                       # Number of times bus staying in WRITE state
system.mem_ctrls.numWrRetry                         0                       # Number of times write queue was full causing retry
system.mem_ctrls.numWriteReadTurnArounds        74639                       # Number of turnarounds from WRITE to READ
system.mem_ctrls.num_reads::.cpu.inst             526                       # Number of read requests responded to by this memory
system.mem_ctrls.num_reads::.cpu.data         2227229                       # Number of read requests responded to by this memory
system.mem_ctrls.num_reads::total             2227755                       # Number of read requests responded to by this memory
system.mem_ctrls.num_writes::.writebacks      1203387                       # Number of write requests responded to by this memory
system.mem_ctrls.num_writes::total            1203387                       # Number of write requests responded to by this memory
system.mem_ctrls.pageHitRate                    87.18                       # Row buffer hit rate, read and write combined
system.mem_ctrls.peakBW                      12800.00                       # Theoretical peak bandwidth in MiByte/s
system.mem_ctrls.perBankRdBursts::0            139053                       # Per bank write bursts
system.mem_ctrls.perBankRdBursts::1            139146                       # Per bank write bursts
system.mem_ctrls.perBankRdBursts::2            139402                       # Per bank write bursts
system.mem_ctrls.perBankRdBursts::3            139348                       # Per bank write bursts
system.mem_ctrls.perBankRdBursts::4            138913                       # Per bank write bursts
system.mem_ctrls.perBankRdBursts::5            139126                       # Per bank write bursts
system.mem_ctrls.perBankRdBursts::6            139597                       # Per bank write bursts
system.mem_ctrls.perBankRdBursts::7            139396                       # Per bank write bursts
system.mem_ctrls.perBankRdBursts::8            138886                       # Per bank write bursts
system.mem_ctrls.perBankRdBursts::9            138852                       # Per bank write bursts
system.mem_ctrls.perBankRdBursts::10           139023                       # Per bank write bursts
system.mem_ctrls.perBankRdBursts::11           139086                       # Per bank write bursts
system.mem_ctrls.perBankRdBursts::12           138612                       # Per bank write bursts
system.mem_ctrls.perBankRdBursts::13           139168                       # Per bank write bursts
system.mem_ctrls.perBankRdBursts::14           139107                       # Per bank write bursts
system.mem_ctrls.perBankRdBursts::15           139677                       # Per bank write bursts
system.mem_ctrls.perBankWrBursts::0             75131                       # Per bank write bursts
system.mem_ctrls.perBankWrBursts::1             75343                       # Per bank write bursts
system.mem_ctrls.perBankWrBursts::2             75782                       # Per bank write bursts
system.mem_ctrls.perBankWrBursts::3             75828                       # Per bank write bursts
system.mem_ctrls.perBankWrBursts::4             74990                       # Per bank write bursts
system.mem_ctrls.perBankWrBursts::5             74786                       # Per bank write bursts
system.mem_ctrls.perBankWrBursts::6             75402                       # Per bank write bursts
system.mem_ctrls.perBankWrBursts::7             75335                       # Per bank write bursts
system.mem_ctrls.perBankWrBursts::8             74740                       # Per bank write bursts
system.mem_ctrls.perBankWrBursts::9             74848                       # Per bank write bursts
system.mem_ctrls.perBankWrBursts::10            74988                       # Per bank write bursts
system.mem_ctrls.perBankWrBursts::11            75143                       # Per bank write bursts
system.mem_ctrls.perBankWrBursts::12            74664                       # Per bank write bursts
system.mem_ctrls.perBankWrBursts::13            75160                       # Per bank write bursts
system.mem_ctrls.perBankWrBursts::14            75204                       # Per bank write bursts
system.mem_ctrls.perBankWrBursts::15            75936                       # Per bank write bursts
system.mem_ctrls.priorityMaxLatency      0.145632760500                       # per QoS priority maximum request to response latency (s)
system.mem_ctrls.priorityMinLatency      0.000000018750                       # per QoS priority minimum request to response latency (s)
system.mem_ctrls.pwrStateResidencyTicks::UNDEFINED 393552886500                       # Cumulative time (in ticks) in various power states
system.mem_ctrls.rdPerTurnAround::samples        74639                       # Reads before turning the bus around for writes
system.mem_ctrls.rdPerTurnAround::mean      29.828789                       # Reads before turning the bus around for writes
system.mem_ctrls.rdPerTurnAround::gmean     27.759759                       # Reads before turning the bus around for writes
system.mem_ctrls.rdPerTurnAround::stdev     60.905575                       # Reads before turning the bus around for writes
system.mem_ctrls.rdPerTurnAround::0-511         74599     99.95%     99.95% # Reads before turning the bus around for writes
system.mem_ctrls.rdPerTurnAround::512-1023           36      0.05%     99.99% # Reads before turning the bus around for writes
system.mem_ctrls.rdPerTurnAround::1024-1535            2      0.00%    100.00% # Reads before turning the bus around for writes
system.mem_ctrls.rdPerTurnAround::10752-11263            1      0.00%    100.00% # Reads before turning the bus around for writes
system.mem_ctrls.rdPerTurnAround::11264-11775            1      0.00%    100.00% # Reads before turning the bus around for writes
system.mem_ctrls.rdPerTurnAround::total         74639                       # Reads before turning the bus around for writes
system.mem_ctrls.rdQLenPdf::0                 2190514                       # What read queue length does an incoming req see
system.mem_ctrls.rdQLenPdf::1                   30496                       # What read queue length does an incoming req see
system.mem_ctrls.rdQLenPdf::2                    3079                       # What read queue length does an incoming req see
system.mem_ctrls.rdQLenPdf::3                    2303                       # What read queue length does an incoming req see
system.mem_ctrls.rdQLenPdf::4                       0                       # What read queue length does an incoming req see
system.mem_ctrls.rdQLenPdf::5                       0                       # What read queue length does an incoming req see
system.mem_ctrls.rdQLenPdf::6                       0                       # What read queue length does an incoming req see
system.mem_ctrls.rdQLenPdf::7                       0                       # What read queue length does an incoming req see
system.mem_ctrls.rdQLenPdf::8                       0                       # What read queue length does an incoming req see
system.mem_ctrls.rdQLenPdf::9                       0                       # What read queue length does an incoming req see
system.mem_ctrls.rdQLenPdf::10                      0                       # What read queue length does an incoming req see
system.mem_ctrls.rdQLenPdf::11                      0                       # What read queue length does an incoming req see
system.mem_ctrls.rdQLenPdf::12                      0                       # What read queue length does an incoming req see
system.mem_ctrls.rdQLenPdf::13                      0                       # What read queue length does an incoming req see
system.mem_ctrls.rdQLenPdf::14                      0                       # What read queue length does an incoming req see
system.mem_ctrls.rdQLenPdf::15                      0                       # What read queue length does an incoming req see
system.mem_ctrls.rdQLenPdf::16                      0                       # What read queue length does an incoming req see
system.mem_ctrls.rdQLenPdf::17                      0                       # What read queue length does an incoming req see
system.mem_ctrls.rdQLenPdf::18                      0                       # What read queue length does an incoming req see
system.mem_ctrls.rdQLenPdf::19                      0                       # What read queue length does an incoming req see
system.mem_ctrls.rdQLenPdf::20                      0                       # What read queue length does an incoming req see
system.mem_ctrls.rdQLenPdf::21                      0                       # What read queue length does an incoming req see
system.mem_ctrls.rdQLenPdf::22                      0                       # What read queue length does an incoming req see
system.mem_ctrls.rdQLenPdf::23                      0                       # What read queue length does an incoming req see
system.mem_ctrls.rdQLenPdf::24                      0                       # What read queue length does an incoming req see
system.mem_ctrls.rdQLenPdf::25                      0                       # What read queue length does an incoming req see
system.mem_ctrls.rdQLenPdf::26                      0                       # What read queue length does an incoming req see
system.mem_ctrls.rdQLenPdf::27                      0                       # What read queue length does an incoming req see
system.mem_ctrls.rdQLenPdf::28                      0                       # What read queue length does an incoming req see
system.mem_ctrls.rdQLenPdf::29                      0                       # What read queue length does an incoming req see
system.mem_ctrls.rdQLenPdf::30                      0                       # What read queue length does an incoming req see
system.mem_ctrls.rdQLenPdf::31                      0                       # What read queue length does an incoming req see
system.mem_ctrls.readBursts                   2227755                       # Number of DRAM read bursts, including those serviced by the write queue
system.mem_ctrls.readPktSize::0                     0                       # Read request sizes (log2)
system.mem_ctrls.readPktSize::1                     0                       # Read request sizes (log2)
system.mem_ctrls.readPktSize::2                     0                       # Read request sizes (log2)
system.mem_ctrls.readPktSize::3                     0                       # Read request sizes (log2)
system.mem_ctrls.readPktSize::4                     0                       # Read request sizes (log2)
system.mem_ctrls.readPktSize::5                     0                       # Read request sizes (log2)
system.mem_ctrls.readPktSize::6               2227755                       # Read request sizes (log2)
[...]
system.mem_ctrls.wrQLenPdf::26                  74670                       # What write queue length does an incoming req see
system.mem_ctrls.wrQLenPdf::27                  74651                       # What write queue length does an incoming req see
system.mem_ctrls.wrQLenPdf::28                  74649                       # What write queue length does an incoming req see
system.mem_ctrls.wrQLenPdf::29                  74891                       # What write queue length does an incoming req see
system.mem_ctrls.wrQLenPdf::30                  74831                       # What write queue length does an incoming req see
system.mem_ctrls.wrQLenPdf::31                  74725                       # What write queue length does an incoming req see
system.mem_ctrls.wrQLenPdf::32                  74760                       # What write queue length does an incoming req see
system.mem_ctrls.wrQLenPdf::33                     38                       # What write queue length does an incoming req see
system.mem_ctrls.wrQLenPdf::34                      6                       # What write queue length does an incoming req see
system.mem_ctrls.wrQLenPdf::35                      2                       # What write queue length does an incoming req see
system.mem_ctrls.wrQLenPdf::36                      0                       # What write queue length does an incoming req see
system.mem_ctrls.wrQLenPdf::37                      0                       # What write queue length does an incoming req see
system.mem_ctrls.wrQLenPdf::38                      0                       # What write queue length does an incoming req see
system.mem_ctrls.wrQLenPdf::39                      0                       # What write queue length does an incoming req see
system.mem_ctrls.wrQLenPdf::40                      0                       # What write queue length does an incoming req see
system.mem_ctrls.wrQLenPdf::41                      0                       # What write queue length does an incoming req see
system.mem_ctrls.wrQLenPdf::42                      0                       # What write queue length does an incoming req see
system.mem_ctrls.wrQLenPdf::43                      0                       # What write queue length does an incoming req see
system.mem_ctrls.wrQLenPdf::44                      0                       # What write queue length does an incoming req see
system.mem_ctrls.wrQLenPdf::45                      0                       # What write queue length does an incoming req see
system.mem_ctrls.wrQLenPdf::46                      0                       # What write queue length does an incoming req see
system.mem_ctrls.wrQLenPdf::47                      0                       # What write queue length does an incoming req see
system.mem_ctrls.wrQLenPdf::48                      0                       # What write queue length does an incoming req see
system.mem_ctrls.wrQLenPdf::49                      0                       # What write queue length does an incoming req see
system.mem_ctrls.wrQLenPdf::50                      0                       # What write queue length does an incoming req see
system.mem_ctrls.wrQLenPdf::51                      0                       # What write queue length does an incoming req see
system.mem_ctrls.wrQLenPdf::52                      0                       # What write queue length does an incoming req see
system.mem_ctrls.wrQLenPdf::53                      0                       # What write queue length does an incoming req see
system.mem_ctrls.wrQLenPdf::54                      0                       # What write queue length does an incoming req see
system.mem_ctrls.wrQLenPdf::55                      0                       # What write queue length does an incoming req see
system.mem_ctrls.wrQLenPdf::56                      0                       # What write queue length does an incoming req see
system.mem_ctrls.wrQLenPdf::57                      0                       # What write queue length does an incoming req see
system.mem_ctrls.wrQLenPdf::58                      0                       # What write queue length does an incoming req see
system.mem_ctrls.wrQLenPdf::59                      0                       # What write queue length does an incoming req see
system.mem_ctrls.wrQLenPdf::60                      0                       # What write queue length does an incoming req see
system.mem_ctrls.wrQLenPdf::61                      0                       # What write queue length does an incoming req see
system.mem_ctrls.wrQLenPdf::62                      0                       # What write queue length does an incoming req see
system.mem_ctrls.wrQLenPdf::63                      0                       # What write queue length does an incoming req see
system.mem_ctrls.writeBursts                  1203387                       # Number of DRAM write bursts, including those merged in the write queue
system.mem_ctrls.writePktSize::0                    0                       # Write request sizes (log2)
system.mem_ctrls.writePktSize::1                    0                       # Write request sizes (log2)
system.mem_ctrls.writePktSize::2                    0                       # Write request sizes (log2)
system.mem_ctrls.writePktSize::3                    0                       # Write request sizes (log2)
system.mem_ctrls.writePktSize::4                    0                       # Write request sizes (log2)
system.mem_ctrls.writePktSize::5                    0                       # Write request sizes (log2)
system.mem_ctrls.writePktSize::6              1203387                       # Write request sizes (log2)
system.mem_ctrls.writeReqs                    1203387                       # Number of write requests accepted
system.mem_ctrls.writeRowHitRate                87.64                       # Row buffer hit rate for writes
system.mem_ctrls.writeRowHits                 1054576                       # Number of row buffer hits during writes
system.mem_ctrls_0.actBackEnergy          27137454900                       # Energy for active background per rank (pJ)
system.mem_ctrls_0.actEnergy               1576926120                       # Energy for activate commands per rank (pJ)
system.mem_ctrls_0.actPowerDownEnergy     88620828090                       # Energy for active power-down per rank (pJ)
system.mem_ctrls_0.averagePower            496.163445                       # Core power per rank (mW)
system.mem_ctrls_0.memoryStateTime::IDLE   1107265250                       # Time in different power states
system.mem_ctrls_0.memoryStateTime::REF   10103080000                       # Time in different power states
system.mem_ctrls_0.memoryStateTime::SREF  90264318750                       # Time in different power states
system.mem_ctrls_0.memoryStateTime::PRE_PDN  46768963782                       # Time in different power states
system.mem_ctrls_0.memoryStateTime::ACT   50961451253                       # Time in different power states
system.mem_ctrls_0.memoryStateTime::ACT_PDN 194347807465                       # Time in different power states
system.mem_ctrls_0.preBackEnergy           1014952320                       # Energy for precharge background per rank (pJ)
system.mem_ctrls_0.preEnergy                838140930                       # Energy for precharge commands per rank (pJ)
system.mem_ctrls_0.prePowerDownEnergy     17961003360                       # Energy for precharge power-down per rank (pJ)
system.mem_ctrls_0.readEnergy              7953824340                       # Energy for read commands per rank (pJ)
system.mem_ctrls_0.refreshEnergy         23883681120.000004                       # Energy for refresh commands per rank (pJ)
system.mem_ctrls_0.selfRefreshEnergy      23126878920                       # Energy for self refresh per rank (pJ)
system.mem_ctrls_0.totalEnergy           195266556060                       # Total energy per rank (pJ)
system.mem_ctrls_0.totalIdleTime         331381089997                       # Total Idle time Per DRAM Rank
system.mem_ctrls_0.writeEnergy             3145556340                       # Energy for write commands per rank (pJ)
system.mem_ctrls_1.actBackEnergy          27183136980                       # Energy for active background per rank (pJ)
system.mem_ctrls_1.actEnergy               1561425180                       # Energy for activate commands per rank (pJ)
system.mem_ctrls_1.actPowerDownEnergy     88380231090                       # Energy for active power-down per rank (pJ)
system.mem_ctrls_1.averagePower            494.720537                       # Core power per rank (mW)
system.mem_ctrls_1.memoryStateTime::IDLE   1066471000                       # Time in different power states
system.mem_ctrls_1.memoryStateTime::REF   10043540000                       # Time in different power states
system.mem_ctrls_1.memoryStateTime::SREF  92086142500                       # Time in different power states
system.mem_ctrls_1.memoryStateTime::PRE_PDN  45410170677                       # Time in different power states
system.mem_ctrls_1.memoryStateTime::ACT   51121339272                       # Time in different power states
system.mem_ctrls_1.memoryStateTime::ACT_PDN 193825223051                       # Time in different power states
system.mem_ctrls_1.preBackEnergy           1001062080                       # Energy for precharge background per rank (pJ)
system.mem_ctrls_1.preEnergy                829898190                       # Energy for precharge commands per rank (pJ)
system.mem_ctrls_1.prePowerDownEnergy     17438944800                       # Energy for precharge power-down per rank (pJ)
system.mem_ctrls_1.readEnergy              7942614540                       # Energy for read commands per rank (pJ)
system.mem_ctrls_1.refreshEnergy         23742928560.000004                       # Energy for refresh commands per rank (pJ)
system.mem_ctrls_1.selfRefreshEnergy      23474970840                       # Energy for self refresh per rank (pJ)
system.mem_ctrls_1.totalEnergy           194698695510                       # Total energy per rank (pJ)
system.mem_ctrls_1.totalIdleTime         331321422978                       # Total Idle time Per DRAM Rank
system.mem_ctrls_1.writeEnergy             3135565260                       # Energy for write commands per rank (pJ)
system.membus.pkt_count_system.l2.mem_side::system.mem_ctrls.port      6666329                       # Packet count per connected master and slave (bytes)
system.membus.pkt_count_system.l2.mem_side::total      6666329                       # Packet count per connected master and slave (bytes)
system.membus.pkt_count::total                6666329                       # Packet count per connected master and slave (bytes)
system.membus.pkt_size_system.l2.mem_side::system.mem_ctrls.port    219593088                       # Cumulative packet size per connected master and slave (bytes)
system.membus.pkt_size_system.l2.mem_side::total    219593088                       # Cumulative packet size per connected master and slave (bytes)
system.membus.pkt_size::total               219593088                       # Cumulative packet size per connected master and slave (bytes)
system.membus.pwrStateResidencyTicks::UNDEFINED 393552886500                       # Cumulative time (in ticks) in various power states
system.membus.reqLayer2.occupancy          9286082456                       # Layer occupancy (ticks)
system.membus.reqLayer2.utilization               2.4                       # Layer utilization (%)
system.membus.respLayer1.occupancy        11757710403                       # Layer occupancy (ticks)
system.membus.respLayer1.utilization              3.0                       # Layer utilization (%)
system.membus.snoopTraffic                          0                       # Total snoop traffic (bytes)
system.membus.snoop_fanout::samples           2227755                       # Request fanout histogram
system.membus.snoop_fanout::mean                    0                       # Request fanout histogram
system.membus.snoop_fanout::stdev                   0                       # Request fanout histogram
system.membus.snoop_fanout::underflows              0      0.00%      0.00% # Request fanout histogram
system.membus.snoop_fanout::0                 2227755    100.00%    100.00% # Request fanout histogram
system.membus.snoop_fanout::1                       0      0.00%    100.00% # Request fanout histogram
system.membus.snoop_fanout::overflows               0      0.00%    100.00% # Request fanout histogram
system.membus.snoop_fanout::min_value               0                       # Request fanout histogram
system.membus.snoop_fanout::max_value               0                       # Request fanout histogram
system.membus.snoop_fanout::total             2227755                       # Request fanout histogram
system.membus.snoop_filter.hit_multi_requests            0                       # Number of requests hitting in the snoop filter with multiple (>1) holders of the requested data.
system.membus.snoop_filter.hit_multi_snoops            0                       # Number of snoops hitting in the snoop filter with multiple (>1) holders of the requested data.
system.membus.snoop_filter.hit_single_requests      2210819                       # Number of requests hitting in the snoop filter with a single holder of the requested data.
system.membus.snoop_filter.hit_single_snoops            0                       # Number of snoops hitting in the snoop filter with a single holder of the requested data.
system.membus.snoop_filter.tot_requests       4438574                       # Total number of requests made to the snoop filter.
system.membus.snoop_filter.tot_snoops               0                       # Total number of snoops made to the snoop filter.
system.membus.snoops                                0                       # Total snoops (count)
system.membus.trans_dist::ReadResp            1060064                       # Transaction distribution
system.membus.trans_dist::WritebackDirty      1203387                       # Transaction distribution
system.membus.trans_dist::CleanEvict          1007432                       # Transaction distribution
system.membus.trans_dist::ReadExReq           1167691                       # Transaction distribution
system.membus.trans_dist::ReadExResp          1167691                       # Transaction distribution
system.membus.trans_dist::ReadSharedReq       1060064                       # Transaction distribution
system.pwrStateResidencyTicks::UNDEFINED 393552886500                       # Cumulative time (in ticks) in various power states
system.tol2bus.pkt_count_system.cpu.icache.mem_side::system.l2.cpu_side         1060                       # Packet count per connected master and slave (bytes)
system.tol2bus.pkt_count_system.cpu.dcache.mem_side::system.l2.cpu_side      7853294                       # Packet count per connected master and slave (bytes)
system.tol2bus.pkt_count::total               7854354                       # Packet count per connected master and slave (bytes)
system.tol2bus.pkt_size_system.cpu.icache.mem_side::system.l2.cpu_side        34112                       # Cumulative packet size per connected master and slave (bytes)
system.tol2bus.pkt_size_system.cpu.dcache.mem_side::system.l2.cpu_side    270414144                       # Cumulative packet size per connected master and slave (bytes)
system.tol2bus.pkt_size::total              270448256                       # Cumulative packet size per connected master and slave (bytes)
system.tol2bus.pwrStateResidencyTicks::UNDEFINED 393552886500                       # Cumulative time (in ticks) in various power states
system.tol2bus.reqLayer0.occupancy         4224981500                       # Layer occupancy (ticks)
system.tol2bus.reqLayer0.utilization              1.1                       # Layer utilization (%)
system.tol2bus.respLayer0.occupancy            790500                       # Layer occupancy (ticks)
system.tol2bus.respLayer0.utilization             0.0                       # Layer utilization (%)
system.tol2bus.respLayer1.occupancy        3927159000                       # Layer occupancy (ticks)
system.tol2bus.respLayer1.utilization             1.0                       # Layer utilization (%)
system.tol2bus.snoopTraffic                  77016768                       # Total snoop traffic (bytes)
system.tol2bus.snoop_fanout::samples          4848542                       # Request fanout histogram
system.tol2bus.snoop_fanout::mean            0.015239                       # Request fanout histogram
system.tol2bus.snoop_fanout::stdev           0.122503                       # Request fanout histogram
system.tol2bus.snoop_fanout::underflows             0      0.00%      0.00% # Request fanout histogram
system.tol2bus.snoop_fanout::0                4774654     98.48%     98.48% # Request fanout histogram
system.tol2bus.snoop_fanout::1                  73888      1.52%    100.00% # Request fanout histogram
system.tol2bus.snoop_fanout::2                      0      0.00%    100.00% # Request fanout histogram
system.tol2bus.snoop_fanout::3                      0      0.00%    100.00% # Request fanout histogram
system.tol2bus.snoop_fanout::4                      0      0.00%    100.00% # Request fanout histogram
system.tol2bus.snoop_fanout::overflows              0      0.00%    100.00% # Request fanout histogram
system.tol2bus.snoop_fanout::min_value              0                       # Request fanout histogram
system.tol2bus.snoop_fanout::max_value              1                       # Request fanout histogram
system.tol2bus.snoop_fanout::total            4848542                       # Request fanout histogram
system.tol2bus.snoop_filter.hit_multi_requests            1                       # Number of requests hitting in the snoop filter with multiple (>1) holders of the requested data.
system.tol2bus.snoop_filter.hit_multi_snoops            0                       # Number of snoops hitting in the snoop filter with multiple (>1) holders of the requested data.
system.tol2bus.snoop_filter.hit_single_requests      2617088                       # Number of requests hitting in the snoop filter with a single holder of the requested data.
system.tol2bus.snoop_filter.hit_single_snoops        73887                       # Number of snoops hitting in the snoop filter with a single holder of the requested data.
system.tol2bus.snoop_filter.tot_requests      5235721                       # Total number of requests made to the snoop filter.
system.tol2bus.snoop_filter.tot_snoops          73887                       # Total number of snoops made to the snoop filter.
system.tol2bus.snoops                         2229909                       # Total snoops (count)
system.tol2bus.trans_dist::ReadResp           1334555                       # Transaction distribution
system.tol2bus.trans_dist::WritebackDirty      2810502                       # Transaction distribution
system.tol2bus.trans_dist::WritebackClean            6                       # Transaction distribution
system.tol2bus.trans_dist::CleanEvict         2036489                       # Transaction distribution
system.tol2bus.trans_dist::ReadExReq          1284078                       # Transaction distribution
system.tol2bus.trans_dist::ReadExResp         1284078                       # Transaction distribution
system.tol2bus.trans_dist::ReadCleanReq           527                       # Transaction distribution
system.tol2bus.trans_dist::ReadSharedReq      1334028                       # Transaction distribution
system.voltage_domain.voltage                       1                       # Voltage in Volts

---------- End Simulation Statistics   ----------
