
---------- Begin Simulation Statistics ----------
final_tick                               959222574500                       # Number of ticks from beginning of simulation (restored from checkpoints and never reset)
host_inst_rate                                 265234                       # Simulator instruction rate (inst/s)
host_mem_usage                                 821736                       # Number of bytes of host memory used
host_op_rate                                   480429                       # Simulator op (including micro ops) rate (op/s)
host_seconds                                   377.03                       # Real time elapsed on the host
host_tick_rate                             2544182961                       # Simulator tick rate (ticks/s)
sim_freq                                 1000000000000                       # Frequency of simulated ticks
sim_insts                                   100000001                       # Number of instructions simulated
sim_ops                                     181133978                       # Number of ops (including micro ops) simulated
sim_seconds                                  0.959223                       # Number of seconds simulated
sim_ticks                                959222574500                       # Number of ticks simulated
system.clk_domain.clock                          1000                       # Clock period in ticks
system.cpu.Branches                          13383360                       # Number of branches fetched
system.cpu.apic_clk_domain.clock                 8000                       # Clock period in ticks
system.cpu.committedInsts                   100000001                       # Number of instructions committed
system.cpu.committedOps                     181133978                       # Number of ops (including micro ops) committed
system.cpu.dcache.ReadReq_accesses::.cpu.data     14664116                       # number of ReadReq accesses(hits+misses)
system.cpu.dcache.ReadReq_accesses::total     14664116                       # number of ReadReq accesses(hits+misses)
system.cpu.dcache.ReadReq_avg_miss_latency::.cpu.data 243636.848793                       # average ReadReq miss latency
system.cpu.dcache.ReadReq_avg_miss_latency::total 243636.848793                       # average ReadReq miss latency
system.cpu.dcache.ReadReq_avg_mshr_miss_latency::.cpu.data 242636.848793                       # average ReadReq mshr miss latency
system.cpu.dcache.ReadReq_avg_mshr_miss_latency::total 242636.848793                       # average ReadReq mshr miss latency
system.cpu.dcache.ReadReq_hits::.cpu.data     14656246                       # number of ReadReq hits
system.cpu.dcache.ReadReq_hits::total        14656246                       # number of ReadReq hits
system.cpu.dcache.ReadReq_miss_latency::.cpu.data   1917422000                       # number of ReadReq miss cycles
system.cpu.dcache.ReadReq_miss_latency::total   1917422000                       # number of ReadReq miss cycles
system.cpu.dcache.ReadReq_miss_rate::.cpu.data     0.000537                       # miss rate for ReadReq accesses
system.cpu.dcache.ReadReq_miss_rate::total     0.000537                       # miss rate for ReadReq accesses
system.cpu.dcache.ReadReq_misses::.cpu.data         7870                       # number of ReadReq misses
system.cpu.dcache.ReadReq_misses::total          7870                       # number of ReadReq misses
system.cpu.dcache.ReadReq_mshr_miss_latency::.cpu.data   1909552000                       # number of ReadReq MSHR miss cycles
system.cpu.dcache.ReadReq_mshr_miss_latency::total   1909552000                       # number of ReadReq MSHR miss cycles
system.cpu.dcache.ReadReq_mshr_miss_rate::.cpu.data     0.000537                       # mshr miss rate for ReadReq accesses
system.cpu.dcache.ReadReq_mshr_miss_rate::total     0.000537                       # mshr miss rate for ReadReq accesses
system.cpu.dcache.ReadReq_mshr_misses::.cpu.data         7870                       # number of ReadReq MSHR misses
system.cpu.dcache.ReadReq_mshr_misses::total         7870                       # number of ReadReq MSHR misses
system.cpu.dcache.WriteReq_accesses::.cpu.data     70485123                       # number of WriteReq accesses(hits+misses)
system.cpu.dcache.WriteReq_accesses::total     70485123                       # number of WriteReq accesses(hits+misses)
system.cpu.dcache.WriteReq_avg_miss_latency::.cpu.data 89121.248545                       # average WriteReq miss latency
system.cpu.dcache.WriteReq_avg_miss_latency::total 89121.248545                       # average WriteReq miss latency
system.cpu.dcache.WriteReq_avg_mshr_miss_latency::.cpu.data 88121.248545                       # average WriteReq mshr miss latency
system.cpu.dcache.WriteReq_avg_mshr_miss_latency::total 88121.248545                       # average WriteReq mshr miss latency
system.cpu.dcache.WriteReq_hits::.cpu.data     62194273                       # number of WriteReq hits
system.cpu.dcache.WriteReq_hits::total       62194273                       # number of WriteReq hits
system.cpu.dcache.WriteReq_miss_latency::.cpu.data 738890903500                       # number of WriteReq miss cycles
system.cpu.dcache.WriteReq_miss_latency::total 738890903500                       # number of WriteReq miss cycles
system.cpu.dcache.WriteReq_miss_rate::.cpu.data     0.117626                       # miss rate for WriteReq accesses
system.cpu.dcache.WriteReq_miss_rate::total     0.117626                       # miss rate for WriteReq accesses
system.cpu.dcache.WriteReq_misses::.cpu.data      8290850                       # number of WriteReq misses
system.cpu.dcache.WriteReq_misses::total      8290850                       # number of WriteReq misses
system.cpu.dcache.WriteReq_mshr_miss_latency::.cpu.data 730600053500                       # number of WriteReq MSHR miss cycles
system.cpu.dcache.WriteReq_mshr_miss_latency::total 730600053500                       # number of WriteReq MSHR miss cycles
system.cpu.dcache.WriteReq_mshr_miss_rate::.cpu.data     0.117626                       # mshr miss rate for WriteReq accesses
system.cpu.dcache.WriteReq_mshr_miss_rate::total     0.117626                       # mshr miss rate for WriteReq accesses
system.cpu.dcache.WriteReq_mshr_misses::.cpu.data      8290850                       # number of WriteReq MSHR misses
system.cpu.dcache.WriteReq_mshr_misses::total      8290850                       # number of WriteReq MSHR misses
system.cpu.dcache.avg_blocked_cycles::no_mshrs          nan                       # average number of cycles each access was blocked
system.cpu.dcache.avg_blocked_cycles::no_targets          nan                       # average number of cycles each access was blocked
system.cpu.dcache.blocked::no_mshrs                 0                       # number of cycles access was blocked
system.cpu.dcache.blocked::no_targets               0                       # number of cycles access was blocked
system.cpu.dcache.blocked_cycles::no_mshrs            0                       # number of cycles access was blocked
system.cpu.dcache.blocked_cycles::no_targets            0                       # number of cycles access was blocked
system.cpu.dcache.demand_accesses::.cpu.data     85149239                       # number of demand (read+write) accesses
system.cpu.dcache.demand_accesses::total     85149239                       # number of demand (read+write) accesses
system.cpu.dcache.demand_avg_miss_latency::.cpu.data 89267.781718                       # average overall miss latency
system.cpu.dcache.demand_avg_miss_latency::total 89267.781718                       # average overall miss latency
system.cpu.dcache.demand_avg_mshr_miss_latency::.cpu.data 88267.781718                       # average overall mshr miss latency
system.cpu.dcache.demand_avg_mshr_miss_latency::total 88267.781718                       # average overall mshr miss latency
system.cpu.dcache.demand_hits::.cpu.data     76850519                       # number of demand (read+write) hits
system.cpu.dcache.demand_hits::total         76850519                       # number of demand (read+write) hits
system.cpu.dcache.demand_miss_latency::.cpu.data 740808325500                       # number of demand (read+write) miss cycles
system.cpu.dcache.demand_miss_latency::total 740808325500                       # number of demand (read+write) miss cycles
system.cpu.dcache.demand_miss_rate::.cpu.data     0.097461                       # miss rate for demand accesses
system.cpu.dcache.demand_miss_rate::total     0.097461                       # miss rate for demand accesses
system.cpu.dcache.demand_misses::.cpu.data      8298720                       # number of demand (read+write) misses
system.cpu.dcache.demand_misses::total        8298720                       # number of demand (read+write) misses
system.cpu.dcache.demand_mshr_miss_latency::.cpu.data 732509605500                       # number of demand (read+write) MSHR miss cycles
system.cpu.dcache.demand_mshr_miss_latency::total 732509605500                       # number of demand (read+write) MSHR miss cycles
system.cpu.dcache.demand_mshr_miss_rate::.cpu.data     0.097461                       # mshr miss rate for demand accesses
system.cpu.dcache.demand_mshr_miss_rate::total     0.097461                       # mshr miss rate for demand accesses
system.cpu.dcache.demand_mshr_misses::.cpu.data      8298720                       # number of demand (read+write) MSHR misses
system.cpu.dcache.demand_mshr_misses::total      8298720                       # number of demand (read+write) MSHR misses
system.cpu.dcache.overall_accesses::.cpu.data     85149239                       # number of overall (read+write) accesses
system.cpu.dcache.overall_accesses::total     85149239                       # number of overall (read+write) accesses
system.cpu.dcache.overall_avg_miss_latency::.cpu.data 89267.781718                       # average overall miss latency
system.cpu.dcache.overall_avg_miss_latency::total 89267.781718                       # average overall miss latency
system.cpu.dcache.overall_avg_mshr_miss_latency::.cpu.data 88267.781718                       # average overall mshr miss latency
system.cpu.dcache.overall_avg_mshr_miss_latency::total 88267.781718                       # average overall mshr miss latency
system.cpu.dcache.overall_hits::.cpu.data     76850519                       # number of overall hits
system.cpu.dcache.overall_hits::total        76850519                       # number of overall hits
system.cpu.dcache.overall_miss_latency::.cpu.data 740808325500                       # number of overall miss cycles
system.cpu.dcache.overall_miss_latency::total 740808325500                       # number of overall miss cycles
system.cpu.dcache.overall_miss_rate::.cpu.data     0.097461                       # miss rate for overall accesses
system.cpu.dcache.overall_miss_rate::total     0.097461                       # miss rate for overall accesses
system.cpu.dcache.overall_misses::.cpu.data      8298720                       # number of overall misses
system.cpu.dcache.overall_misses::total       8298720                       # number of overall misses
system.cpu.dcache.overall_mshr_miss_latency::.cpu.data 732509605500                       # number of overall MSHR miss cycles
system.cpu.dcache.overall_mshr_miss_latency::total 732509605500                       # number of overall MSHR miss cycles
system.cpu.dcache.overall_mshr_miss_rate::.cpu.data     0.097461                       # mshr miss rate for overall accesses
system.cpu.dcache.overall_mshr_miss_rate::total     0.097461                       # mshr miss rate for overall accesses
system.cpu.dcache.overall_mshr_misses::.cpu.data      8298720                       # number of overall MSHR misses
system.cpu.dcache.overall_mshr_misses::total      8298720                       # number of overall MSHR misses
system.cpu.dcache.pwrStateResidencyTicks::UNDEFINED 959222574500                       # Cumulative time (in ticks) in various power states
system.cpu.dcache.replacements                8296672                       # number of replacements
system.cpu.dcache.tags.age_task_id_blocks_1024::0            4                       # Occupied blocks per task id
system.cpu.dcache.tags.age_task_id_blocks_1024::1            8                       # Occupied blocks per task id
system.cpu.dcache.tags.age_task_id_blocks_1024::2           83                       # Occupied blocks per task id
system.cpu.dcache.tags.age_task_id_blocks_1024::3          383                       # Occupied blocks per task id
system.cpu.dcache.tags.age_task_id_blocks_1024::4         1570                       # Occupied blocks per task id
system.cpu.dcache.tags.avg_refs             10.260527                       # Average number of references to valid blocks.
system.cpu.dcache.tags.data_accesses        178597198                       # Number of data accesses
system.cpu.dcache.tags.occ_blocks::.cpu.data  2043.614567                       # Average occupied blocks per requestor
system.cpu.dcache.tags.occ_percent::.cpu.data     0.997859                       # Average percentage of cache occupancy
system.cpu.dcache.tags.occ_percent::total     0.997859                       # Average percentage of cache occupancy
system.cpu.dcache.tags.occ_task_id_blocks::1024         2048                       # Occupied blocks per task id
system.cpu.dcache.tags.occ_task_id_percent::1024            1                       # Percentage of cache occupancy per task id
system.cpu.dcache.tags.pwrStateResidencyTicks::UNDEFINED 959222574500                       # Cumulative time (in ticks) in various power states
system.cpu.dcache.tags.sampled_refs           8298720                       # Sample count of references to valid blocks.
system.cpu.dcache.tags.tag_accesses         178597198                       # Number of tag accesses
system.cpu.dcache.tags.tagsinuse          2043.614567                       # Cycle average of tags in use
system.cpu.dcache.tags.total_refs            85149239                       # Total number of references to valid blocks.
system.cpu.dcache.tags.warmup_cycle            181500                       # Cycle when the warmup percentage was hit.
system.cpu.dcache.writebacks::.writebacks      8294552                       # number of writebacks
system.cpu.dcache.writebacks::total           8294552                       # number of writebacks
system.cpu.dtb.pwrStateResidencyTicks::UNDEFINED 959222574500                       # Cumulative time (in ticks) in various power states
system.cpu.dtb.rdAccesses                    14664116                       # TLB accesses on read requests
system.cpu.dtb.rdMisses                         12989                       # TLB misses on read requests
system.cpu.dtb.walker.pwrStateResidencyTicks::UNDEFINED 959222574500                       # Cumulative time (in ticks) in various power states
system.cpu.dtb.wrAccesses                    70485123                       # TLB accesses on write requests
system.cpu.dtb.wrMisses                        130894                       # TLB misses on write requests
system.cpu.dtb_walker_cache.avg_blocked_cycles::no_mshrs          nan                       # average number of cycles each access was blocked
system.cpu.dtb_walker_cache.avg_blocked_cycles::no_targets          nan                       # average number of cycles each access was blocked
system.cpu.dtb_walker_cache.blocked::no_mshrs            0                       # number of cycles access was blocked
system.cpu.dtb_walker_cache.blocked::no_targets            0                       # number of cycles access was blocked
system.cpu.dtb_walker_cache.blocked_cycles::no_mshrs            0                       # number of cycles access was blocked
system.cpu.dtb_walker_cache.blocked_cycles::no_targets            0                       # number of cycles access was blocked
system.cpu.dtb_walker_cache.pwrStateResidencyTicks::UNDEFINED 959222574500                       # Cumulative time (in ticks) in various power states
system.cpu.dtb_walker_cache.replacements            0                       # number of replacements
system.cpu.dtb_walker_cache.tags.avg_refs          nan                       # Average number of references to valid blocks.
system.cpu.dtb_walker_cache.tags.data_accesses            0                       # Number of data accesses
system.cpu.dtb_walker_cache.tags.pwrStateResidencyTicks::UNDEFINED 959222574500                       # Cumulative time (in ticks) in various power states
system.cpu.dtb_walker_cache.tags.sampled_refs            0                       # Sample count of references to valid blocks.
system.cpu.dtb_walker_cache.tags.tag_accesses            0                       # Number of tag accesses
system.cpu.dtb_walker_cache.tags.tagsinuse            0                       # Cycle average of tags in use
system.cpu.dtb_walker_cache.tags.total_refs            0                       # Total number of references to valid blocks.
system.cpu.dtb_walker_cache.tags.warmup_cycle            0                       # Cycle when the warmup percentage was hit.
system.cpu.icache.ReadReq_accesses::.cpu.inst    139152120                       # number of ReadReq accesses(hits+misses)
system.cpu.icache.ReadReq_accesses::total    139152120                       # number of ReadReq accesses(hits+misses)
system.cpu.icache.ReadReq_avg_miss_latency::.cpu.inst 14407.388878                       # average ReadReq miss latency
system.cpu.icache.ReadReq_avg_miss_latency::total 14407.388878                       # average ReadReq miss latency
system.cpu.icache.ReadReq_avg_mshr_miss_latency::.cpu.inst 13407.388878                       # average ReadReq mshr miss latency
system.cpu.icache.ReadReq_avg_mshr_miss_latency::total 13407.388878                       # average ReadReq mshr miss latency
system.cpu.icache.ReadReq_hits::.cpu.inst    138972228                       # number of ReadReq hits
system.cpu.icache.ReadReq_hits::total       138972228                       # number of ReadReq hits
system.cpu.icache.ReadReq_miss_latency::.cpu.inst   2591774000                       # number of ReadReq miss cycles
system.cpu.icache.ReadReq_miss_latency::total   2591774000                       # number of ReadReq miss cycles
system.cpu.icache.ReadReq_miss_rate::.cpu.inst     0.001293                       # miss rate for ReadReq accesses
system.cpu.icache.ReadReq_miss_rate::total     0.001293                       # miss rate for ReadReq accesses
system.cpu.icache.ReadReq_misses::.cpu.inst       179892                       # number of ReadReq misses
system.cpu.icache.ReadReq_misses::total        179892                       # number of ReadReq misses
system.cpu.icache.ReadReq_mshr_miss_latency::.cpu.inst   2411882000                       # number of ReadReq MSHR miss cycles
system.cpu.icache.ReadReq_mshr_miss_latency::total   2411882000                       # number of ReadReq MSHR miss cycles
system.cpu.icache.ReadReq_mshr_miss_rate::.cpu.inst     0.001293                       # mshr miss rate for ReadReq accesses
system.cpu.icache.ReadReq_mshr_miss_rate::total     0.001293                       # mshr miss rate for ReadReq accesses
system.cpu.icache.ReadReq_mshr_misses::.cpu.inst       179892                       # number of ReadReq MSHR misses
system.cpu.icache.ReadReq_mshr_misses::total       179892                       # number of ReadReq MSHR misses
system.cpu.icache.avg_blocked_cycles::no_mshrs          nan                       # average number of cycles each access was blocked
system.cpu.icache.avg_blocked_cycles::no_targets          nan                       # average number of cycles each access was blocked
system.cpu.icache.blocked::no_mshrs                 0                       # number of cycles access was blocked
system.cpu.icache.blocked::no_targets               0                       # number of cycles access was blocked
system.cpu.icache.blocked_cycles::no_mshrs            0                       # number of cycles access was blocked
system.cpu.icache.blocked_cycles::no_targets            0                       # number of cycles access was blocked
system.cpu.icache.demand_accesses::.cpu.inst    139152120                       # number of demand (read+write) accesses
system.cpu.icache.demand_accesses::total    139152120                       # number of demand (read+write) accesses
system.cpu.icache.demand_avg_miss_latency::.cpu.inst 14407.388878                       # average overall miss latency
system.cpu.icache.demand_avg_miss_latency::total 14407.388878                       # average overall miss latency
system.cpu.icache.demand_avg_mshr_miss_latency::.cpu.inst 13407.388878                       # average overall mshr miss latency
system.cpu.icache.demand_avg_mshr_miss_latency::total 13407.388878                       # average overall mshr miss latency
system.cpu.icache.demand_hits::.cpu.inst    138972228                       # number of demand (read+write) hits
system.cpu.icache.demand_hits::total        138972228                       # number of demand (read+write) hits
system.cpu.icache.demand_miss_latency::.cpu.inst   2591774000                       # number of demand (read+write) miss cycles
system.cpu.icache.demand_miss_latency::total   2591774000                       # number of demand (read+write) miss cycles
system.cpu.icache.demand_miss_rate::.cpu.inst     0.001293                       # miss rate for demand accesses
system.cpu.icache.demand_miss_rate::total     0.001293                       # miss rate for demand accesses
system.cpu.icache.demand_misses::.cpu.inst       179892                       # number of demand (read+write) misses
system.cpu.icache.demand_misses::total         179892                       # number of demand (read+write) misses
system.cpu.icache.demand_mshr_miss_latency::.cpu.inst   2411882000                       # number of demand (read+write) MSHR miss cycles
system.cpu.icache.demand_mshr_miss_latency::total   2411882000                       # number of demand (read+write) MSHR miss cycles
system.cpu.icache.demand_mshr_miss_rate::.cpu.inst     0.001293                       # mshr miss rate for demand accesses
system.cpu.icache.demand_mshr_miss_rate::total     0.001293                       # mshr miss rate for demand accesses
system.cpu.icache.demand_mshr_misses::.cpu.inst       179892                       # number of demand (read+write) MSHR misses
system.cpu.icache.demand_mshr_misses::total       179892                       # number of demand (read+write) MSHR misses
system.cpu.icache.overall_accesses::.cpu.inst    139152120                       # number of overall (read+write) accesses
system.cpu.icache.overall_accesses::total    139152120                       # number of overall (read+write) accesses
system.cpu.icache.overall_avg_miss_latency::.cpu.inst 14407.388878                       # average overall miss latency
system.cpu.icache.overall_avg_miss_latency::total 14407.388878                       # average overall miss latency
system.cpu.icache.overall_avg_mshr_miss_latency::.cpu.inst 13407.388878                       # average overall mshr miss latency
system.cpu.icache.overall_avg_mshr_miss_latency::total 13407.388878                       # average overall mshr miss latency
system.cpu.icache.overall_hits::.cpu.inst    138972228                       # number of overall hits
system.cpu.icache.overall_hits::total       138972228                       # number of overall hits
system.cpu.icache.overall_miss_latency::.cpu.inst   2591774000                       # number of overall miss cycles
system.cpu.icache.overall_miss_latency::total   2591774000                       # number of overall miss cycles
system.cpu.icache.overall_miss_rate::.cpu.inst     0.001293                       # miss rate for overall accesses
system.cpu.icache.overall_miss_rate::total     0.001293                       # miss rate for overall accesses
system.cpu.icache.overall_misses::.cpu.inst       179892                       # number of overall misses
system.cpu.icache.overall_misses::total        179892                       # number of overall misses
system.cpu.icache.overall_mshr_miss_latency::.cpu.inst   2411882000                       # number of overall MSHR miss cycles
system.cpu.icache.overall_mshr_miss_latency::total   2411882000                       # number of overall MSHR miss cycles
system.cpu.icache.overall_mshr_miss_rate::.cpu.inst     0.001293                       # mshr miss rate for overall accesses
system.cpu.icache.overall_mshr_miss_rate::total     0.001293                       # mshr miss rate for overall accesses
system.cpu.icache.overall_mshr_misses::.cpu.inst       179892                       # number of overall MSHR misses
system.cpu.icache.overall_mshr_misses::total       179892                       # number of overall MSHR misses
system.cpu.icache.pwrStateResidencyTicks::UNDEFINED 959222574500                       # Cumulative time (in ticks) in various power states
system.cpu.icache.replacements                 179380                       # number of replacements
system.cpu.icache.tags.age_task_id_blocks_1024::0           45                       # Occupied blocks per task id
system.cpu.icache.tags.age_task_id_blocks_1024::1           79                       # Occupied blocks per task id
system.cpu.icache.tags.age_task_id_blocks_1024::2           79                       # Occupied blocks per task id
system.cpu.icache.tags.age_task_id_blocks_1024::3           42                       # Occupied blocks per task id
system.cpu.icache.tags.age_task_id_blocks_1024::4          267                       # Occupied blocks per task id
system.cpu.icache.tags.avg_refs            773.531452                       # Average number of references to valid blocks.
system.cpu.icache.tags.data_accesses        278484132                       # Number of data accesses
system.cpu.icache.tags.occ_blocks::.cpu.inst   409.982160                       # Average occupied blocks per requestor
system.cpu.icache.tags.occ_percent::.cpu.inst     0.800746                       # Average percentage of cache occupancy
system.cpu.icache.tags.occ_percent::total     0.800746                       # Average percentage of cache occupancy
system.cpu.icache.tags.occ_task_id_blocks::1024          512                       # Occupied blocks per task id
system.cpu.icache.tags.occ_task_id_percent::1024            1                       # Percentage of cache occupancy per task id
system.cpu.icache.tags.pwrStateResidencyTicks::UNDEFINED 959222574500                       # Cumulative time (in ticks) in various power states
system.cpu.icache.tags.sampled_refs            179892                       # Sample count of references to valid blocks.
system.cpu.icache.tags.tag_accesses         278484132                       # Number of tag accesses
system.cpu.icache.tags.tagsinuse           409.982160                       # Cycle average of tags in use
system.cpu.icache.tags.total_refs           139152120                       # Total number of references to valid blocks.
system.cpu.icache.tags.warmup_cycle             87500                       # Cycle when the warmup percentage was hit.
system.cpu.icache.writebacks::.writebacks       179380                       # number of writebacks
system.cpu.icache.writebacks::total            179380                       # number of writebacks
system.cpu.idle_fraction                            0                       # Percentage of idle cycles
system.cpu.interrupts.pwrStateResidencyTicks::UNDEFINED 959222574500                       # Cumulative time (in ticks) in various power states
system.cpu.itb.pwrStateResidencyTicks::UNDEFINED 959222574500                       # Cumulative time (in ticks) in various power states
system.cpu.itb.rdAccesses                           0                       # TLB accesses on read requests
system.cpu.itb.rdMisses                             0                       # TLB misses on read requests
system.cpu.itb.walker.pwrStateResidencyTicks::UNDEFINED 959222574500                       # Cumulative time (in ticks) in various power states
system.cpu.itb.wrAccesses                   139152120                       # TLB accesses on write requests
system.cpu.itb.wrMisses                            75                       # TLB misses on write requests
system.cpu.itb_walker_cache.avg_blocked_cycles::no_mshrs          nan                       # average number of cycles each access was blocked
system.cpu.itb_walker_cache.avg_blocked_cycles::no_targets          nan                       # average number of cycles each access was blocked
system.cpu.itb_walker_cache.blocked::no_mshrs            0                       # number of cycles access was blocked
system.cpu.itb_walker_cache.blocked::no_targets            0                       # number of cycles access was blocked
system.cpu.itb_walker_cache.blocked_cycles::no_mshrs            0                       # number of cycles access was blocked
system.cpu.itb_walker_cache.blocked_cycles::no_targets            0                       # number of cycles access was blocked
system.cpu.itb_walker_cache.pwrStateResidencyTicks::UNDEFINED 959222574500                       # Cumulative time (in ticks) in various power states
system.cpu.itb_walker_cache.replacements            0                       # number of replacements
system.cpu.itb_walker_cache.tags.avg_refs          nan                       # Average number of references to valid blocks.
system.cpu.itb_walker_cache.tags.data_accesses            0                       # Number of data accesses
system.cpu.itb_walker_cache.tags.pwrStateResidencyTicks::UNDEFINED 959222574500                       # Cumulative time (in ticks) in various power states
system.cpu.itb_walker_cache.tags.sampled_refs            0                       # Sample count of references to valid blocks.
system.cpu.itb_walker_cache.tags.tag_accesses            0                       # Number of tag accesses
system.cpu.itb_walker_cache.tags.tagsinuse            0                       # Cycle average of tags in use
system.cpu.itb_walker_cache.tags.total_refs            0                       # Total number of references to valid blocks.
system.cpu.itb_walker_cache.tags.warmup_cycle            0                       # Cycle when the warmup percentage was hit.
system.cpu.not_idle_fraction                        1                       # Percentage of non-idle cycles
system.cpu.numCycles                       1918445149                       # number of cpu cycles simulated
system.cpu.numWorkItemsCompleted                    0                       # number of work items this cpu completed
system.cpu.numWorkItemsStarted                      0                       # number of work items this cpu started
system.cpu.num_busy_cycles                 1918445149                       # Number of busy cycles
system.cpu.num_cc_register_reads             66390676                       # number of times the CC registers were read
system.cpu.num_cc_register_writes            58331008                       # number of times the CC registers were written
system.cpu.num_conditional_control_insts     12357318                       # number of instructions that are conditional controls
system.cpu.num_fp_alu_accesses               66079645                       # Number of float alu accesses
system.cpu.num_fp_insts                      66079645                       # number of float instructions
system.cpu.num_fp_register_reads             66107541                       # number of times the floating registers were read
system.cpu.num_fp_register_writes               34696                       # number of times the floating registers were written
system.cpu.num_func_calls                      481409                       # number of times a function call or return occured
system.cpu.num_idle_cycles                          0                       # Number of idle cycles
system.cpu.num_int_alu_accesses             180945640                       # Number of integer alu accesses
system.cpu.num_int_insts                    180945640                       # number of integer instructions
system.cpu.num_int_register_reads           393189365                       # number of times the integer registers were read
system.cpu.num_int_register_writes           97341166                       # number of times the integer registers were written
system.cpu.num_load_insts                    14663800                       # Number of load instructions
system.cpu.num_mem_refs                      85148913                       # number of memory refs
system.cpu.num_store_insts                   70485113                       # Number of store instructions
system.cpu.num_vec_alu_accesses                     0                       # Number of vector alu accesses
system.cpu.num_vec_insts                            0                       # number of vector instructions
system.cpu.num_vec_register_reads                   0                       # number of times the vector registers were read
system.cpu.num_vec_register_writes                  0                       # number of times the vector registers were written
system.cpu.op_class::No_OpClass                 17650      0.01%      0.01% # Class of executed instruction
system.cpu.op_class::IntAlu                  95763297     52.87%     52.88% # Class of executed instruction
system.cpu.op_class::IntMult                    94292      0.05%     52.93% # Class of executed instruction
system.cpu.op_class::IntDiv                     79926      0.04%     52.97% # Class of executed instruction
system.cpu.op_class::FloatAdd                    2214      0.00%     52.98% # Class of executed instruction
system.cpu.op_class::FloatCmp                       0      0.00%     52.98% # Class of executed instruction
system.cpu.op_class::FloatCvt                       0      0.00%     52.98% # Class of executed instruction
system.cpu.op_class::FloatMult                      0      0.00%     52.98% # Class of executed instruction
system.cpu.op_class::FloatMultAcc                   0      0.00%     52.98% # Class of executed instruction
system.cpu.op_class::FloatDiv                       0      0.00%     52.98% # Class of executed instruction
system.cpu.op_class::FloatMisc                      0      0.00%     52.98% # Class of executed instruction
system.cpu.op_class::FloatSqrt                      0      0.00%     52.98% # Class of executed instruction
system.cpu.op_class::SimdAdd                        0      0.00%     52.98% # Class of executed instruction
system.cpu.op_class::SimdAddAcc                     0      0.00%     52.98% # Class of executed instruction
system.cpu.op_class::SimdAlu                     4490      0.00%     52.98% # Class of executed instruction
system.cpu.op_class::SimdCmp                       12      0.00%     52.98% # Class of executed instruction
system.cpu.op_class::SimdCvt                     5116      0.00%     52.98% # Class of executed instruction
system.cpu.op_class::SimdMisc                   18029      0.01%     52.99% # Class of executed instruction
system.cpu.op_class::SimdMult                       0      0.00%     52.99% # Class of executed instruction
system.cpu.op_class::SimdMultAcc                    0      0.00%     52.99% # Class of executed instruction
system.cpu.op_class::SimdShift                      0      0.00%     52.99% # Class of executed instruction
system.cpu.op_class::SimdShiftAcc                   0      0.00%     52.99% # Class of executed instruction
system.cpu.op_class::SimdDiv                        0      0.00%     52.99% # Class of executed instruction
system.cpu.op_class::SimdSqrt                       0      0.00%     52.99% # Class of executed instruction
system.cpu.op_class::SimdFloatAdd                   0      0.00%     52.99% # Class of executed instruction
system.cpu.op_class::SimdFloatAlu                   0      0.00%     52.99% # Class of executed instruction
system.cpu.op_class::SimdFloatCmp                   0      0.00%     52.99% # Class of executed instruction
system.cpu.op_class::SimdFloatCvt                  29      0.00%     52.99% # Class of executed instruction
system.cpu.op_class::SimdFloatDiv                   5      0.00%     52.99% # Class of executed instruction
system.cpu.op_class::SimdFloatMisc                  0      0.00%     52.99% # Class of executed instruction
system.cpu.op_class::SimdFloatMult                  5      0.00%     52.99% # Class of executed instruction
system.cpu.op_class::SimdFloatMultAcc               0      0.00%     52.99% # Class of executed instruction
system.cpu.op_class::SimdFloatSqrt                  0      0.00%     52.99% # Class of executed instruction
system.cpu.op_class::SimdReduceAdd                  0      0.00%     52.99% # Class of executed instruction
system.cpu.op_class::SimdReduceAlu                  0      0.00%     52.99% # Class of executed instruction
system.cpu.op_class::SimdReduceCmp                  0      0.00%     52.99% # Class of executed instruction
system.cpu.op_class::SimdFloatReduceAdd             0      0.00%     52.99% # Class of executed instruction
system.cpu.op_class::SimdFloatReduceCmp             0      0.00%     52.99% # Class of executed instruction
system.cpu.op_class::SimdAes                        0      0.00%     52.99% # Class of executed instruction
system.cpu.op_class::SimdAesMix                     0      0.00%     52.99% # Class of executed instruction
system.cpu.op_class::SimdSha1Hash                   0      0.00%     52.99% # Class of executed instruction
system.cpu.op_class::SimdSha1Hash2                  0      0.00%     52.99% # Class of executed instruction
system.cpu.op_class::SimdSha256Hash                 0      0.00%     52.99% # Class of executed instruction
system.cpu.op_class::SimdSha256Hash2                0      0.00%     52.99% # Class of executed instruction
system.cpu.op_class::SimdShaSigma2                  0      0.00%     52.99% # Class of executed instruction
system.cpu.op_class::SimdShaSigma3                  0      0.00%     52.99% # Class of executed instruction
system.cpu.op_class::SimdPredAlu                    0      0.00%     52.99% # Class of executed instruction
system.cpu.op_class::MemRead                 14661131      8.09%     61.09% # Class of executed instruction
system.cpu.op_class::MemWrite                 4442793      2.45%     63.54% # Class of executed instruction
system.cpu.op_class::FloatMemRead                2669      0.00%     63.54% # Class of executed instruction
system.cpu.op_class::FloatMemWrite           66042320     36.46%    100.00% # Class of executed instruction
system.cpu.op_class::IprAccess                      0      0.00%    100.00% # Class of executed instruction
system.cpu.op_class::InstPrefetch                   0      0.00%    100.00% # Class of executed instruction
system.cpu.op_class::total                  181133978                       # Class of executed instruction
system.cpu.pwrStateResidencyTicks::ON    959222574500                       # Cumulative time (in ticks) in various power states
system.cpu.workload.numSyscalls                   146                       # Number of system calls
system.cpu_clk_domain.clock                       500                       # Clock period in ticks
system.cpu_voltage_domain.voltage                   1                       # Voltage in Volts
system.l2.CleanEvict_mshr_miss_rate::.writebacks          inf                       # mshr miss rate for CleanEvict accesses
system.l2.CleanEvict_mshr_miss_rate::total          inf                       # mshr miss rate for CleanEvict accesses
system.l2.CleanEvict_mshr_misses::.writebacks          416                       # number of CleanEvict MSHR misses
system.l2.CleanEvict_mshr_misses::total           416                       # number of CleanEvict MSHR misses
system.l2.ReadCleanReq_accesses::.cpu.inst       179892                       # number of ReadCleanReq accesses(hits+misses)
system.l2.ReadCleanReq_accesses::total         179892                       # number of ReadCleanReq accesses(hits+misses)
system.l2.ReadCleanReq_avg_miss_latency::.cpu.inst 138538.500765                       # average ReadCleanReq miss latency
system.l2.ReadCleanReq_avg_miss_latency::total 138538.500765                       # average ReadCleanReq miss latency
system.l2.ReadCleanReq_avg_mshr_miss_latency::.cpu.inst 128538.500765                       # average ReadCleanReq mshr miss latency
system.l2.ReadCleanReq_avg_mshr_miss_latency::total 128538.500765                       # average ReadCleanReq mshr miss latency
system.l2.ReadCleanReq_hits::.cpu.inst         177931                       # number of ReadCleanReq hits
system.l2.ReadCleanReq_hits::total             177931                       # number of ReadCleanReq hits
system.l2.ReadCleanReq_miss_latency::.cpu.inst    271674000                       # number of ReadCleanReq miss cycles
system.l2.ReadCleanReq_miss_latency::total    271674000                       # number of ReadCleanReq miss cycles
system.l2.ReadCleanReq_miss_rate::.cpu.inst     0.010901                       # miss rate for ReadCleanReq accesses
system.l2.ReadCleanReq_miss_rate::total      0.010901                       # miss rate for ReadCleanReq accesses
system.l2.ReadCleanReq_misses::.cpu.inst         1961                       # number of ReadCleanReq misses
system.l2.ReadCleanReq_misses::total             1961                       # number of ReadCleanReq misses
system.l2.ReadCleanReq_mshr_miss_latency::.cpu.inst    252064000                       # number of ReadCleanReq MSHR miss cycles
system.l2.ReadCleanReq_mshr_miss_latency::total    252064000                       # number of ReadCleanReq MSHR miss cycles
system.l2.ReadCleanReq_mshr_miss_rate::.cpu.inst     0.010901                       # mshr miss rate for ReadCleanReq accesses
system.l2.ReadCleanReq_mshr_miss_rate::total     0.010901                       # mshr miss rate for ReadCleanReq accesses
system.l2.ReadCleanReq_mshr_misses::.cpu.inst         1961                       # number of ReadCleanReq MSHR misses
system.l2.ReadCleanReq_mshr_misses::total         1961                       # number of ReadCleanReq MSHR misses
system.l2.ReadExReq_accesses::.cpu.data       8290850                       # number of ReadExReq accesses(hits+misses)
system.l2.ReadExReq_accesses::total           8290850                       # number of ReadExReq accesses(hits+misses)
system.l2.ReadExReq_avg_miss_latency::.cpu.data 86630.833158                       # average ReadExReq miss latency
system.l2.ReadExReq_avg_miss_latency::total 86630.833158                       # average ReadExReq miss latency
system.l2.ReadExReq_avg_mshr_miss_latency::.cpu.data 76630.833158                       # average ReadExReq mshr miss latency
system.l2.ReadExReq_avg_mshr_miss_latency::total 76630.833158                       # average ReadExReq mshr miss latency
system.l2.ReadExReq_hits::.cpu.data              1044                       # number of ReadExReq hits
system.l2.ReadExReq_hits::total                  1044                       # number of ReadExReq hits
system.l2.ReadExReq_miss_latency::.cpu.data 718152800500                       # number of ReadExReq miss cycles
system.l2.ReadExReq_miss_latency::total  718152800500                       # number of ReadExReq miss cycles
system.l2.ReadExReq_miss_rate::.cpu.data     0.999874                       # miss rate for ReadExReq accesses
system.l2.ReadExReq_miss_rate::total         0.999874                       # miss rate for ReadExReq accesses
system.l2.ReadExReq_misses::.cpu.data         8289806                       # number of ReadExReq misses
system.l2.ReadExReq_misses::total             8289806                       # number of ReadExReq misses
system.l2.ReadExReq_mshr_miss_latency::.cpu.data 635254740500                       # number of ReadExReq MSHR miss cycles
system.l2.ReadExReq_mshr_miss_latency::total 635254740500                       # number of ReadExReq MSHR miss cycles
system.l2.ReadExReq_mshr_miss_rate::.cpu.data     0.999874                       # mshr miss rate for ReadExReq accesses
system.l2.ReadExReq_mshr_miss_rate::total     0.999874                       # mshr miss rate for ReadExReq accesses
system.l2.ReadExReq_mshr_misses::.cpu.data      8289806                       # number of ReadExReq MSHR misses
system.l2.ReadExReq_mshr_misses::total        8289806                       # number of ReadExReq MSHR misses
system.l2.ReadSharedReq_accesses::.cpu.data         7870                       # number of ReadSharedReq accesses(hits+misses)
system.l2.ReadSharedReq_accesses::total          7870                       # number of ReadSharedReq accesses(hits+misses)
system.l2.ReadSharedReq_avg_miss_latency::.cpu.data 319187.840136                       # average ReadSharedReq miss latency
system.l2.ReadSharedReq_avg_miss_latency::total 319187.840136                       # average ReadSharedReq miss latency
system.l2.ReadSharedReq_avg_mshr_miss_latency::.cpu.data 309187.840136                       # average ReadSharedReq mshr miss latency
system.l2.ReadSharedReq_avg_mshr_miss_latency::total 309187.840136                       # average ReadSharedReq mshr miss latency
system.l2.ReadSharedReq_hits::.cpu.data          1990                       # number of ReadSharedReq hits
system.l2.ReadSharedReq_hits::total              1990                       # number of ReadSharedReq hits
system.l2.ReadSharedReq_miss_latency::.cpu.data   1876824500                       # number of ReadSharedReq miss cycles
system.l2.ReadSharedReq_miss_latency::total   1876824500                       # number of ReadSharedReq miss cycles
system.l2.ReadSharedReq_miss_rate::.cpu.data     0.747141                       # miss rate for ReadSharedReq accesses
system.l2.ReadSharedReq_miss_rate::total     0.747141                       # miss rate for ReadSharedReq accesses
system.l2.ReadSharedReq_misses::.cpu.data         5880                       # number of ReadSharedReq misses
system.l2.ReadSharedReq_misses::total            5880                       # number of ReadSharedReq misses
system.l2.ReadSharedReq_mshr_miss_latency::.cpu.data   1818024500                       # number of ReadSharedReq MSHR miss cycles
system.l2.ReadSharedReq_mshr_miss_latency::total   1818024500                       # number of ReadSharedReq MSHR miss cycles
system.l2.ReadSharedReq_mshr_miss_rate::.cpu.data     0.747141                       # mshr miss rate for ReadSharedReq accesses
system.l2.ReadSharedReq_mshr_miss_rate::total     0.747141                       # mshr miss rate for ReadSharedReq accesses
system.l2.ReadSharedReq_mshr_misses::.cpu.data         5880                       # number of ReadSharedReq MSHR misses
system.l2.ReadSharedReq_mshr_misses::total         5880                       # number of ReadSharedReq MSHR misses
system.l2.WritebackClean_accesses::.writebacks       179380                       # number of WritebackClean accesses(hits+misses)
system.l2.WritebackClean_accesses::total       179380                       # number of WritebackClean accesses(hits+misses)
system.l2.WritebackClean_hits::.writebacks       179380                       # number of WritebackClean hits
system.l2.WritebackClean_hits::total           179380                       # number of WritebackClean hits
system.l2.WritebackDirty_accesses::.writebacks      8294552                       # number of WritebackDirty accesses(hits+misses)
system.l2.WritebackDirty_accesses::total      8294552                       # number of WritebackDirty accesses(hits+misses)
system.l2.WritebackDirty_hits::.writebacks      8294552                       # number of WritebackDirty hits
system.l2.WritebackDirty_hits::total          8294552                       # number of WritebackDirty hits
system.l2.avg_blocked_cycles::no_mshrs            nan                       # average number of cycles each access was blocked
system.l2.avg_blocked_cycles::no_targets          nan                       # average number of cycles each access was blocked
system.l2.blocked::no_mshrs                         0                       # number of cycles access was blocked
system.l2.blocked::no_targets                       0                       # number of cycles access was blocked
system.l2.blocked_cycles::no_mshrs                  0                       # number of cycles access was blocked
system.l2.blocked_cycles::no_targets                0                       # number of cycles access was blocked
system.l2.demand_accesses::.cpu.inst           179892                       # number of demand (read+write) accesses
system.l2.demand_accesses::.cpu.data          8298720                       # number of demand (read+write) accesses
system.l2.demand_accesses::total              8478612                       # number of demand (read+write) accesses
system.l2.demand_avg_miss_latency::.cpu.inst 138538.500765                       # average overall miss latency
system.l2.demand_avg_miss_latency::.cpu.data 86795.670063                       # average overall miss latency
system.l2.demand_avg_miss_latency::total 86807.898552                       # average overall miss latency
system.l2.demand_avg_mshr_miss_latency::.cpu.inst 128538.500765                       # average overall mshr miss latency
system.l2.demand_avg_mshr_miss_latency::.cpu.data 76795.670063                       # average overall mshr miss latency
system.l2.demand_avg_mshr_miss_latency::total 76807.898552                       # average overall mshr miss latency
system.l2.demand_hits::.cpu.inst               177931                       # number of demand (read+write) hits
system.l2.demand_hits::.cpu.data                 3034                       # number of demand (read+write) hits
system.l2.demand_hits::total                   180965                       # number of demand (read+write) hits
system.l2.demand_miss_latency::.cpu.inst    271674000                       # number of demand (read+write) miss cycles
system.l2.demand_miss_latency::.cpu.data 720029625000                       # number of demand (read+write) miss cycles
system.l2.demand_miss_latency::total     720301299000                       # number of demand (read+write) miss cycles
system.l2.demand_miss_rate::.cpu.inst        0.010901                       # miss rate for demand accesses
system.l2.demand_miss_rate::.cpu.data        0.999634                       # miss rate for demand accesses
system.l2.demand_miss_rate::total            0.978656                       # miss rate for demand accesses
system.l2.demand_misses::.cpu.inst               1961                       # number of demand (read+write) misses
system.l2.demand_misses::.cpu.data            8295686                       # number of demand (read+write) misses
system.l2.demand_misses::total                8297647                       # number of demand (read+write) misses
system.l2.demand_mshr_miss_latency::.cpu.inst    252064000                       # number of demand (read+write) MSHR miss cycles
system.l2.demand_mshr_miss_latency::.cpu.data 637072765000                       # number of demand (read+write) MSHR miss cycles
system.l2.demand_mshr_miss_latency::total 637324829000                       # number of demand (read+write) MSHR miss cycles
system.l2.demand_mshr_miss_rate::.cpu.inst     0.010901                       # mshr miss rate for demand accesses
system.l2.demand_mshr_miss_rate::.cpu.data     0.999634                       # mshr miss rate for demand accesses
system.l2.demand_mshr_miss_rate::total       0.978656                       # mshr miss rate for demand accesses
system.l2.demand_mshr_misses::.cpu.inst          1961                       # number of demand (read+write) MSHR misses
system.l2.demand_mshr_misses::.cpu.data       8295686                       # number of demand (read+write) MSHR misses
system.l2.demand_mshr_misses::total           8297647                       # number of demand (read+write) MSHR misses
system.l2.overall_accesses::.cpu.inst          179892                       # number of overall (read+write) accesses
system.l2.overall_accesses::.cpu.data         8298720                       # number of overall (read+write) accesses
system.l2.overall_accesses::total             8478612                       # number of overall (read+write) accesses
system.l2.overall_avg_miss_latency::.cpu.inst 138538.500765                       # average overall miss latency
system.l2.overall_avg_miss_latency::.cpu.data 86795.670063                       # average overall miss latency
system.l2.overall_avg_miss_latency::total 86807.898552                       # average overall miss latency
system.l2.overall_avg_mshr_miss_latency::.cpu.inst 128538.500765                       # average overall mshr miss latency
system.l2.overall_avg_mshr_miss_latency::.cpu.data 76795.670063                       # average overall mshr miss latency
system.l2.overall_avg_mshr_miss_latency::total 76807.898552                       # average overall mshr miss latency
system.l2.overall_hits::.cpu.inst              177931                       # number of overall hits
system.l2.overall_hits::.cpu.data                3034                       # number of overall hits
system.l2.overall_hits::total                  180965                       # number of overall hits
system.l2.overall_miss_latency::.cpu.inst    271674000                       # number of overall miss cycles
system.l2.overall_miss_latency::.cpu.data 720029625000                       # number of overall miss cycles
system.l2.overall_miss_latency::total    720301299000                       # number of overall miss cycles
system.l2.overall_miss_rate::.cpu.inst       0.010901                       # miss rate for overall accesses
system.l2.overall_miss_rate::.cpu.data       0.999634                       # miss rate for overall accesses
system.l2.overall_miss_rate::total           0.978656                       # miss rate for overall accesses
system.l2.overall_misses::.cpu.inst              1961                       # number of overall misses
system.l2.overall_misses::.cpu.data           8295686                       # number of overall misses
system.l2.overall_misses::total               8297647                       # number of overall misses
system.l2.overall_mshr_miss_latency::.cpu.inst    252064000                       # number of overall MSHR miss cycles
system.l2.overall_mshr_miss_latency::.cpu.data 637072765000                       # number of overall MSHR miss cycles
system.l2.overall_mshr_miss_latency::total 637324829000                       # number of overall MSHR miss cycles
system.l2.overall_mshr_miss_rate::.cpu.inst     0.010901                       # mshr miss rate for overall accesses
system.l2.overall_mshr_miss_rate::.cpu.data     0.999634                       # mshr miss rate for overall accesses
system.l2.overall_mshr_miss_rate::total      0.978656                       # mshr miss rate for overall accesses
system.l2.overall_mshr_misses::.cpu.inst         1961                       # number of overall MSHR misses
system.l2.overall_mshr_misses::.cpu.data      8295686                       # number of overall MSHR misses
system.l2.overall_mshr_misses::total          8297647                       # number of overall MSHR misses
system.l2.pwrStateResidencyTicks::UNDEFINED 959222574500                       # Cumulative time (in ticks) in various power states
system.l2.replacements                        8284912                       # number of replacements
system.l2.tags.age_task_id_blocks_1024::0            5                       # Occupied blocks per task id
system.l2.tags.age_task_id_blocks_1024::1            4                       # Occupied blocks per task id
system.l2.tags.age_task_id_blocks_1024::2           55                       # Occupied blocks per task id
system.l2.tags.age_task_id_blocks_1024::3          419                       # Occupied blocks per task id
system.l2.tags.age_task_id_blocks_1024::4        15901                       # Occupied blocks per task id
system.l2.tags.avg_refs                      2.042361                       # Average number of references to valid blocks.
system.l2.tags.data_accesses                 25255959                       # Number of data accesses
system.l2.tags.occ_blocks::.writebacks      83.740572                       # Average occupied blocks per requestor
system.l2.tags.occ_blocks::.cpu.inst        53.144723                       # Average occupied blocks per requestor
system.l2.tags.occ_blocks::.cpu.data     16117.039496                       # Average occupied blocks per requestor
system.l2.tags.occ_percent::.writebacks      0.005111                       # Average percentage of cache occupancy
system.l2.tags.occ_percent::.cpu.inst        0.003244                       # Average percentage of cache occupancy
system.l2.tags.occ_percent::.cpu.data        0.983706                       # Average percentage of cache occupancy
system.l2.tags.occ_percent::total            0.992061                       # Average percentage of cache occupancy
system.l2.tags.occ_task_id_blocks::1024         16384                       # Occupied blocks per task id
system.l2.tags.occ_task_id_percent::1024            1                       # Percentage of cache occupancy per task id
system.l2.tags.pwrStateResidencyTicks::UNDEFINED 959222574500                       # Cumulative time (in ticks) in various power states
system.l2.tags.sampled_refs                   8301296                       # Sample count of references to valid blocks.
system.l2.tags.tag_accesses                  25255959                       # Number of tag accesses
system.l2.tags.tagsinuse                 16253.924791                       # Cycle average of tags in use
system.l2.tags.total_refs                    16954247                       # Total number of references to valid blocks.
system.l2.tags.warmup_cycle                     77000                       # Cycle when the warmup percentage was hit.
system.l2.writebacks::.writebacks             8279291                       # number of writebacks
system.l2.writebacks::total                   8279291                       # number of writebacks
system.mem_ctrls.avgBusLat                    5000.00                       # Average bus latency per DRAM burst
system.mem_ctrls.avgGap                      57864.77                       # Average gap between requests
system.mem_ctrls.avgMemAccLat                36049.80                       # Average memory access latency per DRAM burst
system.mem_ctrls.avgPriority_.writebacks::samples   8279290.00                       # Average QoS priority value for accepted requests
system.mem_ctrls.avgPriority_.cpu.inst::samples      1961.00                       # Average QoS priority value for accepted requests
system.mem_ctrls.avgPriority_.cpu.data::samples   8295676.00                       # Average QoS priority value for accepted requests
system.mem_ctrls.avgQLat                     17299.80                       # Average queueing delay per DRAM burst
system.mem_ctrls.avgRdBW                       553.62                       # Average DRAM read bandwidth in MiByte/s
system.mem_ctrls.avgRdBWSys                    553.62                       # Average system read bandwidth in MiByte/s
system.mem_ctrls.avgRdQLen                       1.00                       # Average read queue length when enqueuing
system.mem_ctrls.avgWrBW                       552.40                       # Average achieved write bandwidth in MiByte/s
system.mem_ctrls.avgWrBWSys                    552.40                       # Average system write bandwidth in MiByte/s
system.mem_ctrls.avgWrQLen                      25.70                       # Average write queue length when enqueuing
system.mem_ctrls.busUtil                         8.64                       # Data bus utilization in percentage
system.mem_ctrls.busUtilRead                     4.33                       # Data bus utilization in percentage for reads
system.mem_ctrls.busUtilWrite                    4.32                       # Data bus utilization in percentage for writes
system.mem_ctrls.bw_inst_read::.cpu.inst       130839                       # Instruction read bandwidth from this memory (bytes/s)
system.mem_ctrls.bw_inst_read::total           130839                       # Instruction read bandwidth from this memory (bytes/s)
system.mem_ctrls.bw_read::.cpu.inst            130839                       # Total read bandwidth from this memory (bytes/s)
system.mem_ctrls.bw_read::.cpu.data         553493963                       # Total read bandwidth from this memory (bytes/s)
system.mem_ctrls.bw_read::total             553624802                       # Total read bandwidth from this memory (bytes/s)
system.mem_ctrls.bw_total::.writebacks      552400077                       # Total bandwidth to/from this memory (bytes/s)
system.mem_ctrls.bw_total::.cpu.inst           130839                       # Total bandwidth to/from this memory (bytes/s)
system.mem_ctrls.bw_total::.cpu.data        553493963                       # Total bandwidth to/from this memory (bytes/s)
system.mem_ctrls.bw_total::total           1106024879                       # Total bandwidth to/from this memory (bytes/s)
system.mem_ctrls.bw_write::.writebacks      552400077                       # Write bandwidth from this memory (bytes/s)
system.mem_ctrls.bw_write::total            552400077                       # Write bandwidth from this memory (bytes/s)
system.mem_ctrls.bytesPerActivate::samples      1263617                       # Bytes accessed per row activation
system.mem_ctrls.bytesPerActivate::mean    839.590806                       # Bytes accessed per row activation
system.mem_ctrls.bytesPerActivate::gmean   708.215435                       # Bytes accessed per row activation
system.mem_ctrls.bytesPerActivate::stdev   315.217262                       # Bytes accessed per row activation
system.mem_ctrls.bytesPerActivate::0-127        64887      5.14%      5.14% # Bytes accessed per row activation
system.mem_ctrls.bytesPerActivate::128-255        63523      5.03%     10.16% # Bytes accessed per row activation
system.mem_ctrls.bytesPerActivate::256-383        37062      2.93%     13.10% # Bytes accessed per row activation
system.mem_ctrls.bytesPerActivate::384-511        51984      4.11%     17.21% # Bytes accessed per row activation
system.mem_ctrls.bytesPerActivate::512-639        63376      5.02%     22.22% # Bytes accessed per row activation
system.mem_ctrls.bytesPerActivate::640-767        35000      2.77%     24.99% # Bytes accessed per row activation
system.mem_ctrls.bytesPerActivate::768-895        30750      2.43%     27.43% # Bytes accessed per row activation
system.mem_ctrls.bytesPerActivate::896-1023        79892      6.32%     33.75% # Bytes accessed per row activation
system.mem_ctrls.bytesPerActivate::1024-1151       837143     66.25%    100.00% # Bytes accessed per row activation
system.mem_ctrls.bytesPerActivate::total      1263617                       # Bytes accessed per row activation
system.mem_ctrls.bytesReadDRAM              531048768                       # Total number of bytes read from DRAM
system.mem_ctrls.bytesReadSys               531049408                       # Total read bytes from the system interface side
system.mem_ctrls.bytesReadWrQ                     640                       # Total number of bytes read from write queue
system.mem_ctrls.bytesWritten               529872704                       # Total number of bytes written to DRAM
system.mem_ctrls.bytesWrittenSys            529874624                       # Total written bytes from the system interface side
system.mem_ctrls.bytes_inst_read::.cpu.inst       125504                       # Number of instructions bytes read from this memory
system.mem_ctrls.bytes_inst_read::total        125504                       # Number of instructions bytes read from this memory
system.mem_ctrls.bytes_read::.cpu.inst         125504                       # Number of bytes read from this memory
system.mem_ctrls.bytes_read::.cpu.data      530923904                       # Number of bytes read from this memory
system.mem_ctrls.bytes_read::total          531049408                       # Number of bytes read from this memory
system.mem_ctrls.bytes_written::.writebacks    529874624                       # Number of bytes written to this memory
system.mem_ctrls.bytes_written::total       529874624                       # Number of bytes written to this memory
system.mem_ctrls.masterReadAccesses::.cpu.inst         1961                       # Per-master read serviced memory accesses
system.mem_ctrls.masterReadAccesses::.cpu.data      8295686                       # Per-master read serviced memory accesses
system.mem_ctrls.masterReadAvgLat::.cpu.inst     87646.86                       # Per-master read average memory access latency
system.mem_ctrls.masterReadAvgLat::.cpu.data     36037.56                       # Per-master read average memory access latency
system.mem_ctrls.masterReadBytes::.cpu.inst       125504                       # Per-master bytes read from memory
system.mem_ctrls.masterReadBytes::.cpu.data    530923264                       # Per-master bytes read from memory
system.mem_ctrls.masterReadRate::.cpu.inst 130839.289374960383                       # Per-master bytes read from memory rate (Bytes/sec)
system.mem_ctrls.masterReadRate::.cpu.data 553493295.627187132835                       # Per-master bytes read from memory rate (Bytes/sec)
system.mem_ctrls.masterReadTotalLat::.cpu.inst    171875501                       # Per-master read total memory access latency
system.mem_ctrls.masterReadTotalLat::.cpu.data 298956285754                       # Per-master read total memory access latency
system.mem_ctrls.masterWriteAccesses::.writebacks      8279291                       # Per-master write serviced memory accesses
system.mem_ctrls.masterWriteAvgLat::.writebacks   2830750.32                       # Per-master write average memory access latency
system.mem_ctrls.masterWriteBytes::.writebacks    529872704                       # Per-master bytes write to memory
system.mem_ctrls.masterWriteRate::.writebacks 552398075.364520072937                       # Per-master bytes write to memory rate (Bytes/sec)
system.mem_ctrls.masterWriteTotalLat::.writebacks 23436605615113                       # Per-master write total memory access latency
system.mem_ctrls.mergedWrBursts                     1                       # Number of DRAM write bursts merged with an existing one
system.mem_ctrls.neitherReadNorWriteReqs            0                       # Number of requests that are neither read nor write
system.mem_ctrls.numRdRetry                         0                       # Number of times read queue was full causing retry
system.mem_ctrls.numReadWriteTurnArounds       517181                       # Number of turnarounds from READ to WRITE
system.mem_ctrls.numStayReadState            24488579                       # Number of times bus staying in READ state
system.mem_ctrls.numStayWriteState            7773040                       # Number of times bus staying in WRITE state
system.mem_ctrls.numWrRetry                         0                       # Number of times write queue was full causing retry
system.mem_ctrls.numWriteReadTurnArounds       517181                       # Number of turnarounds from WRITE to READ
system.mem_ctrls.num_reads::.cpu.inst            1961                       # Number of read requests responded to by this memory
system.mem_ctrls.num_reads::.cpu.data         8295686                       # Number of read requests responded to by this memory
system.mem_ctrls.num_reads::total             8297647                       # Number of read requests responded to by this memory
system.mem_ctrls.num_writes::.writebacks      8279291                       # Number of write requests responded to by this memory
system.mem_ctrls.num_writes::total            8279291                       # Number of write requests responded to by this memory
system.mem_ctrls.pageHitRate                    92.38                       # Row buffer hit rate, read and write combined
system.mem_ctrls.peakBW                      12800.00                       # Theoretical peak bandwidth in MiByte/s
system.mem_ctrls.perBankRdBursts::0            518499                       # Per bank write bursts
system.mem_ctrls.perBankRdBursts::1            518441                       # Per bank write bursts
system.mem_ctrls.perBankRdBursts::2            518486                       # Per bank write bursts
system.mem_ctrls.perBankRdBursts::3            518646                       # Per bank write bursts
system.mem_ctrls.perBankRdBursts::4            518787                       # Per bank write bursts
system.mem_ctrls.perBankRdBursts::5            518582                       # Per bank write bursts
system.mem_ctrls.perBankRdBursts::6            518412                       # Per bank write bursts
system.mem_ctrls.perBankRdBursts::7            518410                       # Per bank write bursts
system.mem_ctrls.perBankRdBursts::8            518265                       # Per bank write bursts
system.mem_ctrls.perBankRdBursts::9            518458                       # Per bank write bursts
system.mem_ctrls.perBankRdBursts::10           518670                       # Per bank write bursts
system.mem_ctrls.perBankRdBursts::11           518927                       # Per bank write bursts
system.mem_ctrls.perBankRdBursts::12           518803                       # Per bank write bursts
system.mem_ctrls.perBankRdBursts::13           518761                       # Per bank write bursts
system.mem_ctrls.perBankRdBursts::14           518720                       # Per bank write bursts
system.mem_ctrls.perBankRdBursts::15           518770                       # Per bank write bursts
system.mem_ctrls.perBankWrBursts::0            517347                       # Per bank write bursts
system.mem_ctrls.perBankWrBursts::1            517338                       # Per bank write bursts
system.mem_ctrls.perBankWrBursts::2            517386                       # Per bank write bursts
system.mem_ctrls.perBankWrBursts::3            517473                       # Per bank write bursts
system.mem_ctrls.perBankWrBursts::4            517566                       # Per bank write bursts
system.mem_ctrls.perBankWrBursts::5            517453                       # Per bank write bursts
system.mem_ctrls.perBankWrBursts::6            517279                       # Per bank write bursts
system.mem_ctrls.perBankWrBursts::7            517243                       # Per bank write bursts
system.mem_ctrls.perBankWrBursts::8            517183                       # Per bank write bursts
system.mem_ctrls.perBankWrBursts::9            517313                       # Per bank write bursts
system.mem_ctrls.perBankWrBursts::10           517469                       # Per bank write bursts
system.mem_ctrls.perBankWrBursts::11           517681                       # Per bank write bursts
system.mem_ctrls.perBankWrBursts::12           517635                       # Per bank write bursts
system.mem_ctrls.perBankWrBursts::13           517643                       # Per bank write bursts
system.mem_ctrls.perBankWrBursts::14           517628                       # Per bank write bursts
system.mem_ctrls.perBankWrBursts::15           517624                       # Per bank write bursts
system.mem_ctrls.priorityMaxLatency      0.005273908500                       # per QoS priority maximum request to response latency (s)
system.mem_ctrls.priorityMinLatency      0.000000018750                       # per QoS priority minimum request to response latency (s)
system.mem_ctrls.pwrStateResidencyTicks::UNDEFINED 959222574500                       # Cumulative time (in ticks) in various power states
system.mem_ctrls.rdPerTurnAround::samples       517181                       # Reads before turning the bus around for writes
system.mem_ctrls.rdPerTurnAround::mean      16.043936                       # Reads before turning the bus around for writes
system.mem_ctrls.rdPerTurnAround::gmean     16.011075                       # Reads before turning the bus around for writes
system.mem_ctrls.rdPerTurnAround::stdev     10.502784                       # Reads before turning the bus around for writes
system.mem_ctrls.rdPerTurnAround::0-255        517174    100.00%    100.00% # Reads before turning the bus around for writes
system.mem_ctrls.rdPerTurnAround::256-511            1      0.00%    100.00% # Reads before turning the bus around for writes
system.mem_ctrls.rdPerTurnAround::512-767            1      0.00%    100.00% # Reads before turning the bus around for writes
system.mem_ctrls.rdPerTurnAround::1024-1279            1      0.00%    100.00% # Reads before turning the bus around for writes
system.mem_ctrls.rdPerTurnAround::1792-2047            1      0.00%    100.00% # Reads before turning the bus around for writes
system.mem_ctrls.rdPerTurnAround::2304-2559            1      0.00%    100.00% # Reads before turning the bus around for writes
system.mem_ctrls.rdPerTurnAround::3584-3839            1      0.00%    100.00% # Reads before turning the bus around for writes
system.mem_ctrls.rdPerTurnAround::5376-5631            1      0.00%    100.00% # Reads before turning the bus around for writes
system.mem_ctrls.rdPerTurnAround::total        517181                       # Reads before turning the bus around for writes
system.mem_ctrls.rdQLenPdf::0                 8297636                       # What read queue length does an incoming req see
system.mem_ctrls.rdQLenPdf::1                       1                       # What read queue length does an incoming req see
system.mem_ctrls.rdQLenPdf::2                       0                       # What read queue length does an incoming req see
system.mem_ctrls.rdQLenPdf::3                       0                       # What read queue length does an incoming req see
system.mem_ctrls.rdQLenPdf::4                       0                       # What read queue length does an incoming req see
system.mem_ctrls.rdQLenPdf::5                       0                       # What read queue length does an incoming req see
system.mem_ctrls.rdQLenPdf::6                       0                       # What read queue length does an incoming req see
system.mem_ctrls.rdQLenPdf::7                       0                       # What read queue length does an incoming req see
system.mem_ctrls.rdQLenPdf::8                       0                       # What read queue length does an incoming req see
system.mem_ctrls.rdQLenPdf::9                       0                       # What read queue length does an incoming req see
system.mem_ctrls.rdQLenPdf::10                      0                       # What read queue length does an incoming req see
system.mem_ctrls.rdQLenPdf::11                      0                       # What read queue length does an incoming req see
system.mem_ctrls.rdQLenPdf::12                      0                       # What read queue length does an incoming req see
system.mem_ctrls.rdQLenPdf::13                      0                       # What read queue length does an incoming req see
system.mem_ctrls.rdQLenPdf::14                      0                       # What read queue length does an incoming req see
system.mem_ctrls.rdQLenPdf::15                      0                       # What read queue length does an incoming req see
system.mem_ctrls.rdQLenPdf::16                      0                       # What read queue length does an incoming req see
system.mem_ctrls.rdQLenPdf::17                      0                       # What read queue length does an incoming req see
system.mem_ctrls.rdQLenPdf::18                      0                       # What read queue length does an incoming req see
system.mem_ctrls.rdQLenPdf::19                      0                       # What read queue length does an incoming req see
system.mem_ctrls.rdQLenPdf::20                      0                       # What read queue length does an incoming req see
system.mem_ctrls.rdQLenPdf::21                      0                       # What read queue length does an incoming req see
system.mem_ctrls.rdQLenPdf::22                      0                       # What read queue length does an incoming req see
system.mem_ctrls.rdQLenPdf::23                      0                       # What read queue length does an incoming req see
system.mem_ctrls.rdQLenPdf::24                      0                       # What read queue length does an incoming req see
system.mem_ctrls.rdQLenPdf::25                      0                       # What read queue length does an incoming req see
system.mem_ctrls.rdQLenPdf::26                      0                       # What read queue length does an incoming req see
system.mem_ctrls.rdQLenPdf::27                      0                       # What read queue length does an incoming req see
system.mem_ctrls.rdQLenPdf::28                      0                       # What read queue length does an incoming req see
system.mem_ctrls.rdQLenPdf::29                      0                       # What read queue length does an incoming req see
system.mem_ctrls.rdQLenPdf::30                      0                       # What read queue length does an incoming req see
system.mem_ctrls.rdQLenPdf::31                      0                       # What read queue length does an incoming req see
system.mem_ctrls.readBursts                   8297647                       # Number of DRAM read bursts, including those serviced by the write queue
system.mem_ctrls.readPktSize::0                     0                       # Read request sizes (log2)
system.mem_ctrls.readPktSize::1                     0                       # Read request sizes (log2)
system.mem_ctrls.readPktSize::2                     0                       # Read request sizes (log2)
system.mem_ctrls.readPktSize::3                     0                       # Read request sizes (log2)
system.mem_ctrls.readPktSize::4                     0                       # Read request sizes (log2)
system.mem_ctrls.readPktSize::5                     0                       # Read request sizes (log2)
system.mem_ctrls.readPktSize::6               8297647                       # Read request sizes (log2)
system.mem_ctrls.readReqs                     8297647                       # Number of read requests accepted
system.mem_ctrls.readRowHitRate                 91.85                       # Row buffer hit rate for reads
system.mem_ctrls.readRowHits                  7621200                       # Number of row buffer hits during reads
system.mem_ctrls.servicedByWrQ                     10                       # Number of DRAM read bursts serviced by the write queue
system.mem_ctrls.totBusLat                41488185000                       # Total ticks spent in databus transfers
system.mem_ctrls.totGap                  959220713500                       # Total gap between requests
system.mem_ctrls.totMemAccLat            299128161255                       # Total ticks spent from burst creation until serviced by the DRAM
[...]
system.mem_ctrls.wrQLenPdf::26                 517183                       # What write queue length does an incoming req see
system.mem_ctrls.wrQLenPdf::27                 517186                       # What write queue length does an incoming req see
system.mem_ctrls.wrQLenPdf::28                 517186                       # What write queue length does an incoming req see
system.mem_ctrls.wrQLenPdf::29                 517186                       # What write queue length does an incoming req see
system.mem_ctrls.wrQLenPdf::30                 517239                       # What write queue length does an incoming req see
system.mem_ctrls.wrQLenPdf::31                 517185                       # What write queue length does an incoming req see
system.mem_ctrls.wrQLenPdf::32                 517184                       # What write queue length does an incoming req see
system.mem_ctrls.wrQLenPdf::33                      1                       # What write queue length does an incoming req see
system.mem_ctrls.wrQLenPdf::34                      0                       # What write queue length does an incoming req see
system.mem_ctrls.wrQLenPdf::35                      0                       # What write queue length does an incoming req see
system.mem_ctrls.wrQLenPdf::36                      0                       # What write queue length does an incoming req see
system.mem_ctrls.wrQLenPdf::37                      0                       # What write queue length does an incoming req see
system.mem_ctrls.wrQLenPdf::38                      0                       # What write queue length does an incoming req see
system.mem_ctrls.wrQLenPdf::39                      0                       # What write queue length does an incoming req see
system.mem_ctrls.wrQLenPdf::40                      0                       # What write queue length does an incoming req see
system.mem_ctrls.wrQLenPdf::41                      0                       # What write queue length does an incoming req see
system.mem_ctrls.wrQLenPdf::42                      0                       # What write queue length does an incoming req see
system.mem_ctrls.wrQLenPdf::43                      0                       # What write queue length does an incoming req see
system.mem_ctrls.wrQLenPdf::44                      0                       # What write queue length does an incoming req see
system.mem_ctrls.wrQLenPdf::45                      0                       # What write queue length does an incoming req see
system.mem_ctrls.wrQLenPdf::46                      0                       # What write queue length does an incoming req see
system.mem_ctrls.wrQLenPdf::47                      0                       # What write queue length does an incoming req see
system.mem_ctrls.wrQLenPdf::48                      0                       # What write queue length does an incoming req see
system.mem_ctrls.wrQLenPdf::49                      0                       # What write queue length does an incoming req see
system.mem_ctrls.wrQLenPdf::50                      0                       # What write queue length does an incoming req see
system.mem_ctrls.wrQLenPdf::51                      0                       # What write queue length does an incoming req see
system.mem_ctrls.wrQLenPdf::52                      0                       # What write queue length does an incoming req see
system.mem_ctrls.wrQLenPdf::53                      0                       # What write queue length does an incoming req see
system.mem_ctrls.wrQLenPdf::54                      0                       # What write queue length does an incoming req see
system.mem_ctrls.wrQLenPdf::55                      0                       # What write queue length does an incoming req see
system.mem_ctrls.wrQLenPdf::56                      0                       # What write queue length does an incoming req see
system.mem_ctrls.wrQLenPdf::57                      0                       # What write queue length does an incoming req see
system.mem_ctrls.wrQLenPdf::58                      0                       # What write queue length does an incoming req see
system.mem_ctrls.wrQLenPdf::59                      0                       # What write queue length does an incoming req see
system.mem_ctrls.wrQLenPdf::60                      0                       # What write queue length does an incoming req see
system.mem_ctrls.wrQLenPdf::61                      0                       # What write queue length does an incoming req see
system.mem_ctrls.wrQLenPdf::62                      0                       # What write queue length does an incoming req see
system.mem_ctrls.wrQLenPdf::63                      0                       # What write queue length does an incoming req see
system.mem_ctrls.writeBursts                  8279291                       # Number of DRAM write bursts, including those merged in the write queue
system.mem_ctrls.writePktSize::0                    0                       # Write request sizes (log2)
system.mem_ctrls.writePktSize::1                    0                       # Write request sizes (log2)
system.mem_ctrls.writePktSize::2                    0                       # Write request sizes (log2)
system.mem_ctrls.writePktSize::3                    0                       # Write request sizes (log2)
system.mem_ctrls.writePktSize::4                    0                       # Write request sizes (log2)
system.mem_ctrls.writePktSize::5                    0                       # Write request sizes (log2)
system.mem_ctrls.writePktSize::6              8279291                       # Write request sizes (log2)
system.mem_ctrls.writeReqs                    8279291                       # Number of write requests accepted
system.mem_ctrls.writeRowHitRate                92.91                       # Row buffer hit rate for writes
system.mem_ctrls.writeRowHits                 7692077                       # Number of row buffer hits during writes
system.mem_ctrls_0.actBackEnergy          81346310250                       # Energy for active background per rank (pJ)
system.mem_ctrls_0.actEnergy               4511230500                       # Energy for activate commands per rank (pJ)
system.mem_ctrls_0.actPowerDownEnergy    131859614490                       # Energy for active power-down per rank (pJ)
system.mem_ctrls_0.averagePower            464.516420                       # Core power per rank (mW)
system.mem_ctrls_0.memoryStateTime::IDLE   3622206750                       # Time in different power states
system.mem_ctrls_0.memoryStateTime::REF   17910620000                       # Time in different power states
system.mem_ctrls_0.memoryStateTime::SREF 420990942250                       # Time in different power states
system.mem_ctrls_0.memoryStateTime::PRE_PDN  60663090251                       # Time in different power states
system.mem_ctrls_0.memoryStateTime::ACT  166984449985                       # Time in different power states
system.mem_ctrls_0.memoryStateTime::ACT_PDN 289051265264                       # Time in different power states
system.mem_ctrls_0.preBackEnergy           3838772640                       # Energy for precharge background per rank (pJ)
system.mem_ctrls_0.preEnergy               2397772080                       # Energy for precharge commands per rank (pJ)
system.mem_ctrls_0.prePowerDownEnergy     23296593120                       # Energy for precharge power-down per rank (pJ)
system.mem_ctrls_0.readEnergy             29618597820                       # Energy for read commands per rank (pJ)
system.mem_ctrls_0.refreshEnergy         42340705680.000008                       # Energy for refresh commands per rank (pJ)
system.mem_ctrls_0.selfRefreshEnergy     104754536040                       # Energy for self refresh per rank (pJ)
system.mem_ctrls_0.totalEnergy           445574636430                       # Total energy per rank (pJ)
system.mem_ctrls_0.totalIdleTime         770701745015                       # Total Idle time Per DRAM Rank
system.mem_ctrls_0.writeEnergy            21606023700                       # Energy for write commands per rank (pJ)
system.mem_ctrls_1.actBackEnergy          81386134440                       # Energy for active background per rank (pJ)
system.mem_ctrls_1.actEnergy               4511023440                       # Energy for activate commands per rank (pJ)
system.mem_ctrls_1.actPowerDownEnergy    131859791190                       # Energy for active power-down per rank (pJ)
system.mem_ctrls_1.averagePower            464.501935                       # Core power per rank (mW)
system.mem_ctrls_1.memoryStateTime::IDLE   3610546750                       # Time in different power states
system.mem_ctrls_1.memoryStateTime::REF   17909060000                       # Time in different power states
system.mem_ctrls_1.memoryStateTime::SREF 421048801750                       # Time in different power states
system.mem_ctrls_1.memoryStateTime::PRE_PDN  60556252751                       # Time in different power states
system.mem_ctrls_1.memoryStateTime::ACT  167045005482                       # Time in different power states
system.mem_ctrls_1.memoryStateTime::ACT_PDN 289052907767                       # Time in different power states
system.mem_ctrls_1.preBackEnergy           3824644320                       # Energy for precharge background per rank (pJ)
system.mem_ctrls_1.preEnergy               2397654435                       # Energy for precharge commands per rank (pJ)
system.mem_ctrls_1.prePowerDownEnergy     23255436000                       # Energy for precharge power-down per rank (pJ)
system.mem_ctrls_1.readEnergy             29626530360                       # Energy for read commands per rank (pJ)
system.mem_ctrls_1.refreshEnergy         42337017840.000008                       # Energy for refresh commands per rank (pJ)
system.mem_ctrls_1.selfRefreshEnergy     104747051220                       # Energy for self refresh per rank (pJ)
system.mem_ctrls_1.totalEnergy           445560742305                       # Total energy per rank (pJ)
system.mem_ctrls_1.totalIdleTime         770656072268                       # Total Idle time Per DRAM Rank
system.mem_ctrls_1.writeEnergy            21611718720                       # Energy for write commands per rank (pJ)
system.membus.pkt_count_system.l2.mem_side::system.mem_ctrls.port     24876127                       # Packet count per connected master and slave (bytes)
system.membus.pkt_count_system.l2.mem_side::total     24876127                       # Packet count per connected master and slave (bytes)
system.membus.pkt_count::total               24876127                       # Packet count per connected master and slave (bytes)
system.membus.pkt_size_system.l2.mem_side::system.mem_ctrls.port   1060924032                       # Cumulative packet size per connected master and slave (bytes)
system.membus.pkt_size_system.l2.mem_side::total   1060924032                       # Cumulative packet size per connected master and slave (bytes)
system.membus.pkt_size::total              1060924032                       # Cumulative packet size per connected master and slave (bytes)
system.membus.pwrStateResidencyTicks::UNDEFINED 959222574500                       # Cumulative time (in ticks) in various power states
system.membus.reqLayer2.occupancy         49696700085                       # Layer occupancy (ticks)
system.membus.reqLayer2.utilization               5.2                       # Layer utilization (%)
system.membus.respLayer1.occupancy        43629496995                       # Layer occupancy (ticks)
system.membus.respLayer1.utilization              4.5                       # Layer utilization (%)
system.membus.snoopTraffic                          0                       # Total snoop traffic (bytes)
system.membus.snoop_fanout::samples           8297647                       # Request fanout histogram
system.membus.snoop_fanout::mean                    0                       # Request fanout histogram
system.membus.snoop_fanout::stdev                   0                       # Request fanout histogram
system.membus.snoop_fanout::underflows              0      0.00%      0.00% # Request fanout histogram
system.membus.snoop_fanout::0                 8297647    100.00%    100.00% # Request fanout histogram
system.membus.snoop_fanout::1                       0      0.00%    100.00% # Request fanout histogram
system.membus.snoop_fanout::overflows               0      0.00%    100.00% # Request fanout histogram
system.membus.snoop_fanout::min_value               0                       # Request fanout histogram
system.membus.snoop_fanout::max_value               0                       # Request fanout histogram
system.membus.snoop_fanout::total             8297647                       # Request fanout histogram
system.membus.snoop_filter.hit_multi_requests            0                       # Number of requests hitting in the snoop filter with multiple (>1) holders of the requested data.
system.membus.snoop_filter.hit_multi_snoops            0                       # Number of snoops hitting in the snoop filter with multiple (>1) holders of the requested data.
system.membus.snoop_filter.hit_single_requests      8280833                       # Number of requests hitting in the snoop filter with a single holder of the requested data.
system.membus.snoop_filter.hit_single_snoops            0                       # Number of snoops hitting in the snoop filter with a single holder of the requested data.
system.membus.snoop_filter.tot_requests      16578480                       # Total number of requests made to the snoop filter.
system.membus.snoop_filter.tot_snoops               0                       # Total number of snoops made to the snoop filter.
system.membus.snoops                                0                       # Total snoops (count)
system.membus.trans_dist::ReadResp               7841                       # Transaction distribution
system.membus.trans_dist::WritebackDirty      8279291                       # Transaction distribution
system.membus.trans_dist::CleanEvict             1542                       # Transaction distribution
system.membus.trans_dist::ReadExReq           8289806                       # Transaction distribution
system.membus.trans_dist::ReadExResp          8289806                       # Transaction distribution
system.membus.trans_dist::ReadSharedReq          7841                       # Transaction distribution
system.pwrStateResidencyTicks::UNDEFINED 959222574500                       # Cumulative time (in ticks) in various power states
system.tol2bus.pkt_count_system.cpu.icache.mem_side::system.l2.cpu_side       539164                       # Packet count per connected master and slave (bytes)
system.tol2bus.pkt_count_system.cpu.dcache.mem_side::system.l2.cpu_side     24894112                       # Packet count per connected master and slave (bytes)
system.tol2bus.pkt_count::total              25433276                       # Packet count per connected master and slave (bytes)
system.tol2bus.pkt_size_system.cpu.icache.mem_side::system.l2.cpu_side     22993408                       # Cumulative packet size per connected master and slave (bytes)
system.tol2bus.pkt_size_system.cpu.dcache.mem_side::system.l2.cpu_side   1061969408                       # Cumulative packet size per connected master and slave (bytes)
system.tol2bus.pkt_size::total             1084962816                       # Cumulative packet size per connected master and slave (bytes)
system.tol2bus.pwrStateResidencyTicks::UNDEFINED 959222574500                       # Cumulative time (in ticks) in various power states
system.tol2bus.reqLayer0.occupancy        16951264000                       # Layer occupancy (ticks)
system.tol2bus.reqLayer0.utilization              1.8                       # Layer utilization (%)
system.tol2bus.respLayer0.occupancy         269838000                       # Layer occupancy (ticks)
system.tol2bus.respLayer0.utilization             0.0                       # Layer utilization (%)
system.tol2bus.respLayer1.occupancy       12448080000                       # Layer occupancy (ticks)
system.tol2bus.respLayer1.utilization             1.3                       # Layer utilization (%)
system.tol2bus.snoopTraffic                 529874624                       # Total snoop traffic (bytes)
system.tol2bus.snoop_fanout::samples         16763524                       # Request fanout histogram
system.tol2bus.snoop_fanout::mean            0.000268                       # Request fanout histogram
system.tol2bus.snoop_fanout::stdev           0.016380                       # Request fanout histogram
system.tol2bus.snoop_fanout::underflows             0      0.00%      0.00% # Request fanout histogram
system.tol2bus.snoop_fanout::0               16759028     99.97%     99.97% # Request fanout histogram
system.tol2bus.snoop_fanout::1                   4495      0.03%    100.00% # Request fanout histogram
system.tol2bus.snoop_fanout::2                      1      0.00%    100.00% # Request fanout histogram
system.tol2bus.snoop_fanout::3                      0      0.00%    100.00% # Request fanout histogram
system.tol2bus.snoop_fanout::4                      0      0.00%    100.00% # Request fanout histogram
system.tol2bus.snoop_fanout::overflows              0      0.00%    100.00% # Request fanout histogram
system.tol2bus.snoop_fanout::min_value              0                       # Request fanout histogram
system.tol2bus.snoop_fanout::max_value              2                       # Request fanout histogram
system.tol2bus.snoop_fanout::total           16763524                       # Request fanout histogram
system.tol2bus.snoop_filter.hit_multi_requests            1                       # Number of requests hitting in the snoop filter with multiple (>1) holders of the requested data.
system.tol2bus.snoop_filter.hit_multi_snoops            1                       # Number of snoops hitting in the snoop filter with multiple (>1) holders of the requested data.
system.tol2bus.snoop_filter.hit_single_requests      8476052                       # Number of requests hitting in the snoop filter with a single holder of the requested data.
system.tol2bus.snoop_filter.hit_single_snoops         4494                       # Number of snoops hitting in the snoop filter with a single holder of the requested data.
system.tol2bus.snoop_filter.tot_requests     16954664                       # Total number of requests made to the snoop filter.
system.tol2bus.snoop_filter.tot_snoops           4495                       # Total number of snoops made to the snoop filter.
system.tol2bus.snoops                         8284912                       # Total snoops (count)
system.tol2bus.trans_dist::ReadResp            187762                       # Transaction distribution
system.tol2bus.trans_dist::WritebackDirty     16573843                       # Transaction distribution
system.tol2bus.trans_dist::WritebackClean       179380                       # Transaction distribution
system.tol2bus.trans_dist::CleanEvict            7741                       # Transaction distribution
system.tol2bus.trans_dist::ReadExReq          8290850                       # Transaction distribution
system.tol2bus.trans_dist::ReadExResp         8290850                       # Transaction distribution
system.tol2bus.trans_dist::ReadCleanReq        179892                       # Transaction distribution
system.tol2bus.trans_dist::ReadSharedReq         7870                       # Transaction distribution
system.voltage_domain.voltage                       1                       # Voltage in Volts

---------- End Simulation Statistics   ----------
