
---------- Begin Simulation Statistics ----------
final_tick                               191148934500                       # Number of ticks from beginning of simulation (restored from checkpoints and never reset)
host_inst_rate                                 658647                       # Simulator instruction rate (inst/s)
host_mem_usage                                 837096                       # Number of bytes of host memory used
host_op_rate                                   853137                       # Simulator op (including micro ops) rate (op/s)
host_seconds                                   151.83                       # Real time elapsed on the host
host_tick_rate                             1258995043                       # Simulator tick rate (ticks/s)
sim_freq                                 1000000000000                       # Frequency of simulated ticks
sim_insts                                   100000000                       # Number of instructions simulated
sim_ops                                     129528817                       # Number of ops (including micro ops) simulated
sim_seconds                                  0.191149                       # Number of seconds simulated
sim_ticks                                191148934500                       # Number of ticks simulated
system.clk_domain.clock                          1000                       # Clock period in ticks
system.cpu.Branches                           5618420                       # Number of branches fetched
system.cpu.apic_clk_domain.clock                 8000                       # Clock period in ticks
system.cpu.committedInsts                   100000000                       # Number of instructions committed
system.cpu.committedOps                     129528817                       # Number of ops (including micro ops) committed
system.cpu.dcache.ReadReq_accesses::.cpu.data     43799218                       # number of ReadReq accesses(hits+misses)
system.cpu.dcache.ReadReq_accesses::total     43799218                       # number of ReadReq accesses(hits+misses)
system.cpu.dcache.ReadReq_avg_miss_latency::.cpu.data 18977.606323                       # average ReadReq miss latency
system.cpu.dcache.ReadReq_avg_miss_latency::total 18977.606323                       # average ReadReq miss latency
system.cpu.dcache.ReadReq_avg_mshr_miss_latency::.cpu.data 17977.606323                       # average ReadReq mshr miss latency
system.cpu.dcache.ReadReq_avg_mshr_miss_latency::total 17977.606323                       # average ReadReq mshr miss latency
system.cpu.dcache.ReadReq_hits::.cpu.data     43788590                       # number of ReadReq hits
system.cpu.dcache.ReadReq_hits::total        43788590                       # number of ReadReq hits
system.cpu.dcache.ReadReq_miss_latency::.cpu.data    201694000                       # number of ReadReq miss cycles
system.cpu.dcache.ReadReq_miss_latency::total    201694000                       # number of ReadReq miss cycles
system.cpu.dcache.ReadReq_miss_rate::.cpu.data     0.000243                       # miss rate for ReadReq accesses
system.cpu.dcache.ReadReq_miss_rate::total     0.000243                       # miss rate for ReadReq accesses
system.cpu.dcache.ReadReq_misses::.cpu.data        10628                       # number of ReadReq misses
system.cpu.dcache.ReadReq_misses::total         10628                       # number of ReadReq misses
system.cpu.dcache.ReadReq_mshr_miss_latency::.cpu.data    191066000                       # number of ReadReq MSHR miss cycles
system.cpu.dcache.ReadReq_mshr_miss_latency::total    191066000                       # number of ReadReq MSHR miss cycles
system.cpu.dcache.ReadReq_mshr_miss_rate::.cpu.data     0.000243                       # mshr miss rate for ReadReq accesses
system.cpu.dcache.ReadReq_mshr_miss_rate::total     0.000243                       # mshr miss rate for ReadReq accesses
system.cpu.dcache.ReadReq_mshr_misses::.cpu.data        10628                       # number of ReadReq MSHR misses
system.cpu.dcache.ReadReq_mshr_misses::total        10628                       # number of ReadReq MSHR misses
system.cpu.dcache.SoftPFReq_accesses::.cpu.data         4638                       # number of SoftPFReq accesses(hits+misses)
system.cpu.dcache.SoftPFReq_accesses::total         4638                       # number of SoftPFReq accesses(hits+misses)
system.cpu.dcache.SoftPFReq_avg_mshr_miss_latency::.cpu.data 41039.983144                       # average SoftPFReq mshr miss latency
system.cpu.dcache.SoftPFReq_avg_mshr_miss_latency::total 41039.983144                       # average SoftPFReq mshr miss latency
system.cpu.dcache.SoftPFReq_hits::.cpu.data         2087                       # number of SoftPFReq hits
system.cpu.dcache.SoftPFReq_hits::total          2087                       # number of SoftPFReq hits
system.cpu.dcache.SoftPFReq_miss_rate::.cpu.data     0.550022                       # miss rate for SoftPFReq accesses
system.cpu.dcache.SoftPFReq_miss_rate::total     0.550022                       # miss rate for SoftPFReq accesses
system.cpu.dcache.SoftPFReq_misses::.cpu.data         2551                       # number of SoftPFReq misses
system.cpu.dcache.SoftPFReq_misses::total         2551                       # number of SoftPFReq misses
system.cpu.dcache.SoftPFReq_mshr_miss_latency::.cpu.data    104692997                       # number of SoftPFReq MSHR miss cycles
system.cpu.dcache.SoftPFReq_mshr_miss_latency::total    104692997                       # number of SoftPFReq MSHR miss cycles
system.cpu.dcache.SoftPFReq_mshr_miss_rate::.cpu.data     0.550022                       # mshr miss rate for SoftPFReq accesses
system.cpu.dcache.SoftPFReq_mshr_miss_rate::total     0.550022                       # mshr miss rate for SoftPFReq accesses
system.cpu.dcache.SoftPFReq_mshr_misses::.cpu.data         2551                       # number of SoftPFReq MSHR misses
system.cpu.dcache.SoftPFReq_mshr_misses::total         2551                       # number of SoftPFReq MSHR misses
system.cpu.dcache.WriteReq_accesses::.cpu.data      7217753                       # number of WriteReq accesses(hits+misses)
system.cpu.dcache.WriteReq_accesses::total      7217753                       # number of WriteReq accesses(hits+misses)
system.cpu.dcache.WriteReq_avg_miss_latency::.cpu.data 23286.923344                       # average WriteReq miss latency
system.cpu.dcache.WriteReq_avg_miss_latency::total 23286.923344                       # average WriteReq miss latency
system.cpu.dcache.WriteReq_avg_mshr_miss_latency::.cpu.data 22286.923344                       # average WriteReq mshr miss latency
system.cpu.dcache.WriteReq_avg_mshr_miss_latency::total 22286.923344                       # average WriteReq mshr miss latency
system.cpu.dcache.WriteReq_hits::.cpu.data      7188923                       # number of WriteReq hits
system.cpu.dcache.WriteReq_hits::total        7188923                       # number of WriteReq hits
system.cpu.dcache.WriteReq_miss_latency::.cpu.data    671362000                       # number of WriteReq miss cycles
system.cpu.dcache.WriteReq_miss_latency::total    671362000                       # number of WriteReq miss cycles
system.cpu.dcache.WriteReq_miss_rate::.cpu.data     0.003994                       # miss rate for WriteReq accesses
system.cpu.dcache.WriteReq_miss_rate::total     0.003994                       # miss rate for WriteReq accesses
system.cpu.dcache.WriteReq_misses::.cpu.data        28830                       # number of WriteReq misses
system.cpu.dcache.WriteReq_misses::total        28830                       # number of WriteReq misses
system.cpu.dcache.WriteReq_mshr_miss_latency::.cpu.data    642532000                       # number of WriteReq MSHR miss cycles
system.cpu.dcache.WriteReq_mshr_miss_latency::total    642532000                       # number of WriteReq MSHR miss cycles
system.cpu.dcache.WriteReq_mshr_miss_rate::.cpu.data     0.003994                       # mshr miss rate for WriteReq accesses
system.cpu.dcache.WriteReq_mshr_miss_rate::total     0.003994                       # mshr miss rate for WriteReq accesses
system.cpu.dcache.WriteReq_mshr_misses::.cpu.data        28830                       # number of WriteReq MSHR misses
system.cpu.dcache.WriteReq_mshr_misses::total        28830                       # number of WriteReq MSHR misses
system.cpu.dcache.avg_blocked_cycles::no_mshrs    42.370629                       # average number of cycles each access was blocked
system.cpu.dcache.avg_blocked_cycles::no_targets          nan                       # average number of cycles each access was blocked
system.cpu.dcache.blocked::no_mshrs               286                       # number of cycles access was blocked
system.cpu.dcache.blocked::no_targets               0                       # number of cycles access was blocked
system.cpu.dcache.blocked_cycles::no_mshrs        12118                       # number of cycles access was blocked
system.cpu.dcache.blocked_cycles::no_targets            0                       # number of cycles access was blocked
system.cpu.dcache.demand_accesses::.cpu.data     51016971                       # number of demand (read+write) accesses
system.cpu.dcache.demand_accesses::total     51016971                       # number of demand (read+write) accesses
system.cpu.dcache.demand_avg_miss_latency::.cpu.data 22126.210147                       # average overall miss latency
system.cpu.dcache.demand_avg_miss_latency::total 22126.210147                       # average overall miss latency
system.cpu.dcache.demand_avg_mshr_miss_latency::.cpu.data 21126.210147                       # average overall mshr miss latency
system.cpu.dcache.demand_avg_mshr_miss_latency::total 21126.210147                       # average overall mshr miss latency
system.cpu.dcache.demand_hits::.cpu.data     50977513                       # number of demand (read+write) hits
system.cpu.dcache.demand_hits::total         50977513                       # number of demand (read+write) hits
system.cpu.dcache.demand_miss_latency::.cpu.data    873056000                       # number of demand (read+write) miss cycles
system.cpu.dcache.demand_miss_latency::total    873056000                       # number of demand (read+write) miss cycles
system.cpu.dcache.demand_miss_rate::.cpu.data     0.000773                       # miss rate for demand accesses
system.cpu.dcache.demand_miss_rate::total     0.000773                       # miss rate for demand accesses
system.cpu.dcache.demand_misses::.cpu.data        39458                       # number of demand (read+write) misses
system.cpu.dcache.demand_misses::total          39458                       # number of demand (read+write) misses
system.cpu.dcache.demand_mshr_miss_latency::.cpu.data    833598000                       # number of demand (read+write) MSHR miss cycles
system.cpu.dcache.demand_mshr_miss_latency::total    833598000                       # number of demand (read+write) MSHR miss cycles
system.cpu.dcache.demand_mshr_miss_rate::.cpu.data     0.000773                       # mshr miss rate for demand accesses
system.cpu.dcache.demand_mshr_miss_rate::total     0.000773                       # mshr miss rate for demand accesses
system.cpu.dcache.demand_mshr_misses::.cpu.data        39458                       # number of demand (read+write) MSHR misses
system.cpu.dcache.demand_mshr_misses::total        39458                       # number of demand (read+write) MSHR misses
system.cpu.dcache.overall_accesses::.cpu.data     51021609                       # number of overall (read+write) accesses
system.cpu.dcache.overall_accesses::total     51021609                       # number of overall (read+write) accesses
system.cpu.dcache.overall_avg_miss_latency::.cpu.data 20782.594206                       # average overall miss latency
system.cpu.dcache.overall_avg_miss_latency::total 20782.594206                       # average overall miss latency
system.cpu.dcache.overall_avg_mshr_miss_latency::.cpu.data 22335.475660                       # average overall mshr miss latency
system.cpu.dcache.overall_avg_mshr_miss_latency::total 22335.475660                       # average overall mshr miss latency
system.cpu.dcache.overall_hits::.cpu.data     50979600                       # number of overall hits
system.cpu.dcache.overall_hits::total        50979600                       # number of overall hits
system.cpu.dcache.overall_miss_latency::.cpu.data    873056000                       # number of overall miss cycles
system.cpu.dcache.overall_miss_latency::total    873056000                       # number of overall miss cycles
system.cpu.dcache.overall_miss_rate::.cpu.data     0.000823                       # miss rate for overall accesses
system.cpu.dcache.overall_miss_rate::total     0.000823                       # miss rate for overall accesses
system.cpu.dcache.overall_misses::.cpu.data        42009                       # number of overall misses
system.cpu.dcache.overall_misses::total         42009                       # number of overall misses
system.cpu.dcache.overall_mshr_miss_latency::.cpu.data    938290997                       # number of overall MSHR miss cycles
system.cpu.dcache.overall_mshr_miss_latency::total    938290997                       # number of overall MSHR miss cycles
system.cpu.dcache.overall_mshr_miss_rate::.cpu.data     0.000823                       # mshr miss rate for overall accesses
system.cpu.dcache.overall_mshr_miss_rate::total     0.000823                       # mshr miss rate for overall accesses
system.cpu.dcache.overall_mshr_misses::.cpu.data        42009                       # number of overall MSHR misses
system.cpu.dcache.overall_mshr_misses::total        42009                       # number of overall MSHR misses
system.cpu.dcache.pwrStateResidencyTicks::UNDEFINED 191148934500                       # Cumulative time (in ticks) in various power states
system.cpu.dcache.replacements                  39961                       # number of replacements
system.cpu.dcache.tags.age_task_id_blocks_1024::2          112                       # Occupied blocks per task id
system.cpu.dcache.tags.age_task_id_blocks_1024::3          341                       # Occupied blocks per task id
system.cpu.dcache.tags.age_task_id_blocks_1024::4         1595                       # Occupied blocks per task id
system.cpu.dcache.tags.avg_refs           1214.539956                       # Average number of references to valid blocks.
system.cpu.dcache.tags.data_accesses        102085227                       # Number of data accesses
system.cpu.dcache.tags.occ_blocks::.cpu.data  2022.605548                       # Average occupied blocks per requestor
system.cpu.dcache.tags.occ_percent::.cpu.data     0.987600                       # Average percentage of cache occupancy
system.cpu.dcache.tags.occ_percent::total     0.987600                       # Average percentage of cache occupancy
system.cpu.dcache.tags.occ_task_id_blocks::1024         2048                       # Occupied blocks per task id
system.cpu.dcache.tags.occ_task_id_percent::1024            1                       # Percentage of cache occupancy per task id
system.cpu.dcache.tags.pwrStateResidencyTicks::UNDEFINED 191148934500                       # Cumulative time (in ticks) in various power states
system.cpu.dcache.tags.sampled_refs             42009                       # Sample count of references to valid blocks.
system.cpu.dcache.tags.tag_accesses         102085227                       # Number of tag accesses
system.cpu.dcache.tags.tagsinuse          2022.605548                       # Cycle average of tags in use
system.cpu.dcache.tags.total_refs            51021609                       # Total number of references to valid blocks.
system.cpu.dcache.tags.warmup_cycle            181500                       # Cycle when the warmup percentage was hit.
system.cpu.dcache.writebacks::.writebacks        38902                       # number of writebacks
system.cpu.dcache.writebacks::total             38902                       # number of writebacks
system.cpu.dtb.pwrStateResidencyTicks::UNDEFINED 191148934500                       # Cumulative time (in ticks) in various power states
system.cpu.dtb.rdAccesses                    43803856                       # TLB accesses on read requests
system.cpu.dtb.rdMisses                            79                       # TLB misses on read requests
system.cpu.dtb.walker.pwrStateResidencyTicks::UNDEFINED 191148934500                       # Cumulative time (in ticks) in various power states
system.cpu.dtb.wrAccesses                     7217753                       # TLB accesses on write requests
system.cpu.dtb.wrMisses                            72                       # TLB misses on write requests
system.cpu.dtb_walker_cache.avg_blocked_cycles::no_mshrs          nan                       # average number of cycles each access was blocked
system.cpu.dtb_walker_cache.avg_blocked_cycles::no_targets          nan                       # average number of cycles each access was blocked
system.cpu.dtb_walker_cache.blocked::no_mshrs            0                       # number of cycles access was blocked
system.cpu.dtb_walker_cache.blocked::no_targets            0                       # number of cycles access was blocked
system.cpu.dtb_walker_cache.blocked_cycles::no_mshrs            0                       # number of cycles access was blocked
system.cpu.dtb_walker_cache.blocked_cycles::no_targets            0                       # number of cycles access was blocked
system.cpu.dtb_walker_cache.pwrStateResidencyTicks::UNDEFINED 191148934500                       # Cumulative time (in ticks) in various power states
system.cpu.dtb_walker_cache.replacements            0                       # number of replacements
system.cpu.dtb_walker_cache.tags.avg_refs          nan                       # Average number of references to valid blocks.
system.cpu.dtb_walker_cache.tags.data_accesses            0                       # Number of data accesses
system.cpu.dtb_walker_cache.tags.pwrStateResidencyTicks::UNDEFINED 191148934500                       # Cumulative time (in ticks) in various power states
system.cpu.dtb_walker_cache.tags.sampled_refs            0                       # Sample count of references to valid blocks.
system.cpu.dtb_walker_cache.tags.tag_accesses            0                       # Number of tag accesses
system.cpu.dtb_walker_cache.tags.tagsinuse            0                       # Cycle average of tags in use
system.cpu.dtb_walker_cache.tags.total_refs            0                       # Total number of references to valid blocks.
system.cpu.dtb_walker_cache.tags.warmup_cycle            0                       # Cycle when the warmup percentage was hit.
system.cpu.icache.ReadReq_accesses::.cpu.inst    139165069                       # number of ReadReq accesses(hits+misses)
system.cpu.icache.ReadReq_accesses::total    139165069                       # number of ReadReq accesses(hits+misses)
system.cpu.icache.ReadReq_avg_miss_latency::.cpu.inst 92618.870728                       # average ReadReq miss latency
system.cpu.icache.ReadReq_avg_miss_latency::total 92618.870728                       # average ReadReq miss latency
system.cpu.icache.ReadReq_avg_mshr_miss_latency::.cpu.inst 91618.870728                       # average ReadReq mshr miss latency
system.cpu.icache.ReadReq_avg_mshr_miss_latency::total 91618.870728                       # average ReadReq mshr miss latency
system.cpu.icache.ReadReq_hits::.cpu.inst    139163723                       # number of ReadReq hits
system.cpu.icache.ReadReq_hits::total       139163723                       # number of ReadReq hits
system.cpu.icache.ReadReq_miss_latency::.cpu.inst    124665000                       # number of ReadReq miss cycles
system.cpu.icache.ReadReq_miss_latency::total    124665000                       # number of ReadReq miss cycles
system.cpu.icache.ReadReq_miss_rate::.cpu.inst     0.000010                       # miss rate for ReadReq accesses
system.cpu.icache.ReadReq_miss_rate::total     0.000010                       # miss rate for ReadReq accesses
system.cpu.icache.ReadReq_misses::.cpu.inst         1346                       # number of ReadReq misses
system.cpu.icache.ReadReq_misses::total          1346                       # number of ReadReq misses
system.cpu.icache.ReadReq_mshr_miss_latency::.cpu.inst    123319000                       # number of ReadReq MSHR miss cycles
system.cpu.icache.ReadReq_mshr_miss_latency::total    123319000                       # number of ReadReq MSHR miss cycles
system.cpu.icache.ReadReq_mshr_miss_rate::.cpu.inst     0.000010                       # mshr miss rate for ReadReq accesses
system.cpu.icache.ReadReq_mshr_miss_rate::total     0.000010                       # mshr miss rate for ReadReq accesses
system.cpu.icache.ReadReq_mshr_misses::.cpu.inst         1346                       # number of ReadReq MSHR misses
system.cpu.icache.ReadReq_mshr_misses::total         1346                       # number of ReadReq MSHR misses
system.cpu.icache.avg_blocked_cycles::no_mshrs          nan                       # average number of cycles each access was blocked
system.cpu.icache.avg_blocked_cycles::no_targets          nan                       # average number of cycles each access was blocked
system.cpu.icache.blocked::no_mshrs                 0                       # number of cycles access was blocked
system.cpu.icache.blocked::no_targets               0                       # number of cycles access was blocked
system.cpu.icache.blocked_cycles::no_mshrs            0                       # number of cycles access was blocked
system.cpu.icache.blocked_cycles::no_targets            0                       # number of cycles access was blocked
system.cpu.icache.demand_accesses::.cpu.inst    139165069                       # number of demand (read+write) accesses
system.cpu.icache.demand_accesses::total    139165069                       # number of demand (read+write) accesses
system.cpu.icache.demand_avg_miss_latency::.cpu.inst 92618.870728                       # average overall miss latency
system.cpu.icache.demand_avg_miss_latency::total 92618.870728                       # average overall miss latency
system.cpu.icache.demand_avg_mshr_miss_latency::.cpu.inst 91618.870728                       # average overall mshr miss latency
system.cpu.icache.demand_avg_mshr_miss_latency::total 91618.870728                       # average overall mshr miss latency
system.cpu.icache.demand_hits::.cpu.inst    139163723                       # number of demand (read+write) hits
system.cpu.icache.demand_hits::total        139163723                       # number of demand (read+write) hits
system.cpu.icache.demand_miss_latency::.cpu.inst    124665000                       # number of demand (read+write) miss cycles
system.cpu.icache.demand_miss_latency::total    124665000                       # number of demand (read+write) miss cycles
system.cpu.icache.demand_miss_rate::.cpu.inst     0.000010                       # miss rate for demand accesses
system.cpu.icache.demand_miss_rate::total     0.000010                       # miss rate for demand accesses
system.cpu.icache.demand_misses::.cpu.inst         1346                       # number of demand (read+write) misses
system.cpu.icache.demand_misses::total           1346                       # number of demand (read+write) misses
system.cpu.icache.demand_mshr_miss_latency::.cpu.inst    123319000                       # number of demand (read+write) MSHR miss cycles
system.cpu.icache.demand_mshr_miss_latency::total    123319000                       # number of demand (read+write) MSHR miss cycles
system.cpu.icache.demand_mshr_miss_rate::.cpu.inst     0.000010                       # mshr miss rate for demand accesses
system.cpu.icache.demand_mshr_miss_rate::total     0.000010                       # mshr miss rate for demand accesses
system.cpu.icache.demand_mshr_misses::.cpu.inst         1346                       # number of demand (read+write) MSHR misses
system.cpu.icache.demand_mshr_misses::total         1346                       # number of demand (read+write) MSHR misses
system.cpu.icache.overall_accesses::.cpu.inst    139165069                       # number of overall (read+write) accesses
system.cpu.icache.overall_accesses::total    139165069                       # number of overall (read+write) accesses
system.cpu.icache.overall_avg_miss_latency::.cpu.inst 92618.870728                       # average overall miss latency
system.cpu.icache.overall_avg_miss_latency::total 92618.870728                       # average overall miss latency
system.cpu.icache.overall_avg_mshr_miss_latency::.cpu.inst 91618.870728                       # average overall mshr miss latency
system.cpu.icache.overall_avg_mshr_miss_latency::total 91618.870728                       # average overall mshr miss latency
system.cpu.icache.overall_hits::.cpu.inst    139163723                       # number of overall hits
system.cpu.icache.overall_hits::total       139163723                       # number of overall hits
system.cpu.icache.overall_miss_latency::.cpu.inst    124665000                       # number of overall miss cycles
system.cpu.icache.overall_miss_latency::total    124665000                       # number of overall miss cycles
system.cpu.icache.overall_miss_rate::.cpu.inst     0.000010                       # miss rate for overall accesses
system.cpu.icache.overall_miss_rate::total     0.000010                       # miss rate for overall accesses
system.cpu.icache.overall_misses::.cpu.inst         1346                       # number of overall misses
system.cpu.icache.overall_misses::total          1346                       # number of overall misses
system.cpu.icache.overall_mshr_miss_latency::.cpu.inst    123319000                       # number of overall MSHR miss cycles
system.cpu.icache.overall_mshr_miss_latency::total    123319000                       # number of overall MSHR miss cycles
system.cpu.icache.overall_mshr_miss_rate::.cpu.inst     0.000010                       # mshr miss rate for overall accesses
system.cpu.icache.overall_mshr_miss_rate::total     0.000010                       # mshr miss rate for overall accesses
system.cpu.icache.overall_mshr_misses::.cpu.inst         1346                       # number of overall MSHR misses
system.cpu.icache.overall_mshr_misses::total         1346                       # number of overall MSHR misses
system.cpu.icache.pwrStateResidencyTicks::UNDEFINED 191148934500                       # Cumulative time (in ticks) in various power states
system.cpu.icache.replacements                    167                       # number of replacements
system.cpu.icache.tags.age_task_id_blocks_1024::4         1179                       # Occupied blocks per task id
system.cpu.icache.tags.avg_refs          103391.581724                       # Average number of references to valid blocks.
system.cpu.icache.tags.data_accesses        278331484                       # Number of data accesses
system.cpu.icache.tags.occ_blocks::.cpu.inst  1172.357029                       # Average occupied blocks per requestor
system.cpu.icache.tags.occ_percent::.cpu.inst     0.572440                       # Average percentage of cache occupancy
system.cpu.icache.tags.occ_percent::total     0.572440                       # Average percentage of cache occupancy
system.cpu.icache.tags.occ_task_id_blocks::1024         1179                       # Occupied blocks per task id
system.cpu.icache.tags.occ_task_id_percent::1024     0.575684                       # Percentage of cache occupancy per task id
system.cpu.icache.tags.pwrStateResidencyTicks::UNDEFINED 191148934500                       # Cumulative time (in ticks) in various power states
system.cpu.icache.tags.sampled_refs              1346                       # Sample count of references to valid blocks.
system.cpu.icache.tags.tag_accesses         278331484                       # Number of tag accesses
system.cpu.icache.tags.tagsinuse          1172.357029                       # Cycle average of tags in use
system.cpu.icache.tags.total_refs           139165069                       # Total number of references to valid blocks.
system.cpu.icache.tags.warmup_cycle             87500                       # Cycle when the warmup percentage was hit.
system.cpu.icache.writebacks::.writebacks          167                       # number of writebacks
system.cpu.icache.writebacks::total               167                       # number of writebacks
system.cpu.idle_fraction                            0                       # Percentage of idle cycles
system.cpu.interrupts.pwrStateResidencyTicks::UNDEFINED 191148934500                       # Cumulative time (in ticks) in various power states
system.cpu.itb.pwrStateResidencyTicks::UNDEFINED 191148934500                       # Cumulative time (in ticks) in various power states
system.cpu.itb.rdAccesses                           0                       # TLB accesses on read requests
system.cpu.itb.rdMisses                             0                       # TLB misses on read requests
system.cpu.itb.walker.pwrStateResidencyTicks::UNDEFINED 191148934500                       # Cumulative time (in ticks) in various power states
system.cpu.itb.wrAccesses                   139165069                       # TLB accesses on write requests
system.cpu.itb.wrMisses                            94                       # TLB misses on write requests
system.cpu.itb_walker_cache.avg_blocked_cycles::no_mshrs          nan                       # average number of cycles each access was blocked
system.cpu.itb_walker_cache.avg_blocked_cycles::no_targets          nan                       # average number of cycles each access was blocked
system.cpu.itb_walker_cache.blocked::no_mshrs            0                       # number of cycles access was blocked
system.cpu.itb_walker_cache.blocked::no_targets            0                       # number of cycles access was blocked
system.cpu.itb_walker_cache.blocked_cycles::no_mshrs            0                       # number of cycles access was blocked
system.cpu.itb_walker_cache.blocked_cycles::no_targets            0                       # number of cycles access was blocked
system.cpu.itb_walker_cache.pwrStateResidencyTicks::UNDEFINED 191148934500                       # Cumulative time (in ticks) in various power states
system.cpu.itb_walker_cache.replacements            0                       # number of replacements
system.cpu.itb_walker_cache.tags.avg_refs          nan                       # Average number of references to valid blocks.
system.cpu.itb_walker_cache.tags.data_accesses            0                       # Number of data accesses
system.cpu.itb_walker_cache.tags.pwrStateResidencyTicks::UNDEFINED 191148934500                       # Cumulative time (in ticks) in various power states
system.cpu.itb_walker_cache.tags.sampled_refs            0                       # Sample count of references to valid blocks.
system.cpu.itb_walker_cache.tags.tag_accesses            0                       # Number of tag accesses
system.cpu.itb_walker_cache.tags.tagsinuse            0                       # Cycle average of tags in use
system.cpu.itb_walker_cache.tags.total_refs            0                       # Total number of references to valid blocks.
system.cpu.itb_walker_cache.tags.warmup_cycle            0                       # Cycle when the warmup percentage was hit.
system.cpu.not_idle_fraction                        1                       # Percentage of non-idle cycles
system.cpu.numCycles                        382297869                       # number of cpu cycles simulated
system.cpu.numWorkItemsCompleted                    0                       # number of work items this cpu completed
system.cpu.numWorkItemsStarted                      0                       # number of work items this cpu started
system.cpu.num_busy_cycles                  382297869                       # Number of busy cycles
system.cpu.num_cc_register_reads             37965265                       # number of times the CC registers were read
system.cpu.num_cc_register_writes            52208465                       # number of times the CC registers were written
system.cpu.num_conditional_control_insts      5138034                       # number of instructions that are conditional controls
system.cpu.num_fp_alu_accesses                5707266                       # Number of float alu accesses
system.cpu.num_fp_insts                       5707266                       # number of float instructions
system.cpu.num_fp_register_reads              4658582                       # number of times the floating registers were read
system.cpu.num_fp_register_writes             4885696                       # number of times the floating registers were written
system.cpu.num_func_calls                      316255                       # number of times a function call or return occured
system.cpu.num_idle_cycles                          0                       # Number of idle cycles
system.cpu.num_int_alu_accesses             125550466                       # Number of integer alu accesses
system.cpu.num_int_insts                    125550466                       # number of integer instructions
system.cpu.num_int_register_reads           294168655                       # number of times the integer registers were read
system.cpu.num_int_register_writes          114123176                       # number of times the integer registers were written
system.cpu.num_load_insts                    43803356                       # Number of load instructions
system.cpu.num_mem_refs                      51021044                       # number of memory refs
system.cpu.num_store_insts                    7217688                       # Number of store instructions
system.cpu.num_vec_alu_accesses                     0                       # Number of vector alu accesses
system.cpu.num_vec_insts                            0                       # number of vector instructions
system.cpu.num_vec_register_reads                   0                       # number of times the vector registers were read
system.cpu.num_vec_register_writes                  0                       # number of times the vector registers were written
system.cpu.op_class::No_OpClass                350142      0.27%      0.27% # Class of executed instruction
system.cpu.op_class::IntAlu                  73094966     56.43%     56.70% # Class of executed instruction
system.cpu.op_class::IntMult                   134101      0.10%     56.81% # Class of executed instruction
system.cpu.op_class::IntDiv                   1267028      0.98%     57.78% # Class of executed instruction
system.cpu.op_class::FloatAdd                 1914704      1.48%     59.26% # Class of executed instruction
system.cpu.op_class::FloatCmp                       0      0.00%     59.26% # Class of executed instruction
system.cpu.op_class::FloatCvt                       0      0.00%     59.26% # Class of executed instruction
system.cpu.op_class::FloatMult                      0      0.00%     59.26% # Class of executed instruction
system.cpu.op_class::FloatMultAcc                   0      0.00%     59.26% # Class of executed instruction
system.cpu.op_class::FloatDiv                       0      0.00%     59.26% # Class of executed instruction
system.cpu.op_class::FloatMisc                      0      0.00%     59.26% # Class of executed instruction
system.cpu.op_class::FloatSqrt                      0      0.00%     59.26% # Class of executed instruction
system.cpu.op_class::SimdAdd                      450      0.00%     59.26% # Class of executed instruction
system.cpu.op_class::SimdAddAcc                     0      0.00%     59.26% # Class of executed instruction
system.cpu.op_class::SimdAlu                   162810      0.13%     59.39% # Class of executed instruction
system.cpu.op_class::SimdCmp                      204      0.00%     59.39% # Class of executed instruction
system.cpu.op_class::SimdCvt                   180752      0.14%     59.53% # Class of executed instruction
system.cpu.op_class::SimdMisc                  401212      0.31%     59.84% # Class of executed instruction
system.cpu.op_class::SimdMult                       0      0.00%     59.84% # Class of executed instruction
system.cpu.op_class::SimdMultAcc                    0      0.00%     59.84% # Class of executed instruction
system.cpu.op_class::SimdShift                    110      0.00%     59.84% # Class of executed instruction
system.cpu.op_class::SimdShiftAcc                   0      0.00%     59.84% # Class of executed instruction
system.cpu.op_class::SimdDiv                        0      0.00%     59.84% # Class of executed instruction
system.cpu.op_class::SimdSqrt                       0      0.00%     59.84% # Class of executed instruction
system.cpu.op_class::SimdFloatAdd              339760      0.26%     60.10% # Class of executed instruction
system.cpu.op_class::SimdFloatAlu                   0      0.00%     60.10% # Class of executed instruction
system.cpu.op_class::SimdFloatCmp                   0      0.00%     60.10% # Class of executed instruction
system.cpu.op_class::SimdFloatCvt              545700      0.42%     60.52% # Class of executed instruction
system.cpu.op_class::SimdFloatDiv               63423      0.05%     60.57% # Class of executed instruction
system.cpu.op_class::SimdFloatMisc                  0      0.00%     60.57% # Class of executed instruction
system.cpu.op_class::SimdFloatMult              52411      0.04%     60.61% # Class of executed instruction
system.cpu.op_class::SimdFloatMultAcc               0      0.00%     60.61% # Class of executed instruction
system.cpu.op_class::SimdFloatSqrt                  0      0.00%     60.61% # Class of executed instruction
system.cpu.op_class::SimdReduceAdd                  0      0.00%     60.61% # Class of executed instruction
system.cpu.op_class::SimdReduceAlu                  0      0.00%     60.61% # Class of executed instruction
system.cpu.op_class::SimdReduceCmp                  0      0.00%     60.61% # Class of executed instruction
system.cpu.op_class::SimdFloatReduceAdd             0      0.00%     60.61% # Class of executed instruction
system.cpu.op_class::SimdFloatReduceCmp             0      0.00%     60.61% # Class of executed instruction
system.cpu.op_class::SimdAes                        0      0.00%     60.61% # Class of executed instruction
system.cpu.op_class::SimdAesMix                     0      0.00%     60.61% # Class of executed instruction
system.cpu.op_class::SimdSha1Hash                   0      0.00%     60.61% # Class of executed instruction
system.cpu.op_class::SimdSha1Hash2                  0      0.00%     60.61% # Class of executed instruction
system.cpu.op_class::SimdSha256Hash                 0      0.00%     60.61% # Class of executed instruction
system.cpu.op_class::SimdSha256Hash2                0      0.00%     60.61% # Class of executed instruction
system.cpu.op_class::SimdShaSigma2                  0      0.00%     60.61% # Class of executed instruction
system.cpu.op_class::SimdShaSigma3                  0      0.00%     60.61% # Class of executed instruction
system.cpu.op_class::SimdPredAlu                    0      0.00%     60.61% # Class of executed instruction
system.cpu.op_class::MemRead                 42319781     32.67%     93.28% # Class of executed instruction
system.cpu.op_class::MemWrite                 6838372      5.28%     98.56% # Class of executed instruction
system.cpu.op_class::FloatMemRead             1483575      1.15%     99.71% # Class of executed instruction
system.cpu.op_class::FloatMemWrite             379316      0.29%    100.00% # Class of executed instruction
system.cpu.op_class::IprAccess                      0      0.00%    100.00% # Class of executed instruction
system.cpu.op_class::InstPrefetch                   0      0.00%    100.00% # Class of executed instruction
system.cpu.op_class::total                  129528817                       # Class of executed instruction
system.cpu.pwrStateResidencyTicks::ON    191148934500                       # Cumulative time (in ticks) in various power states
system.cpu.workload.numSyscalls                    34                       # Number of system calls
system.cpu_clk_domain.clock                       500                       # Clock period in ticks
system.cpu_voltage_domain.voltage                   1                       # Voltage in Volts
system.l2.ReadCleanReq_accesses::.cpu.inst         1346                       # number of ReadCleanReq accesses(hits+misses)
system.l2.ReadCleanReq_accesses::total           1346                       # number of ReadCleanReq accesses(hits+misses)
system.l2.ReadCleanReq_avg_miss_latency::.cpu.inst 90773.033708                       # average ReadCleanReq miss latency
system.l2.ReadCleanReq_avg_miss_latency::total 90773.033708                       # average ReadCleanReq miss latency
system.l2.ReadCleanReq_avg_mshr_miss_latency::.cpu.inst 80773.033708                       # average ReadCleanReq mshr miss latency
system.l2.ReadCleanReq_avg_mshr_miss_latency::total 80773.033708                       # average ReadCleanReq mshr miss latency
system.l2.ReadCleanReq_hits::.cpu.inst             11                       # number of ReadCleanReq hits
system.l2.ReadCleanReq_hits::total                 11                       # number of ReadCleanReq hits
system.l2.ReadCleanReq_miss_latency::.cpu.inst    121182000                       # number of ReadCleanReq miss cycles
system.l2.ReadCleanReq_miss_latency::total    121182000                       # number of ReadCleanReq miss cycles
system.l2.ReadCleanReq_miss_rate::.cpu.inst     0.991828                       # miss rate for ReadCleanReq accesses
system.l2.ReadCleanReq_miss_rate::total      0.991828                       # miss rate for ReadCleanReq accesses
system.l2.ReadCleanReq_misses::.cpu.inst         1335                       # number of ReadCleanReq misses
system.l2.ReadCleanReq_misses::total             1335                       # number of ReadCleanReq misses
system.l2.ReadCleanReq_mshr_miss_latency::.cpu.inst    107832000                       # number of ReadCleanReq MSHR miss cycles
system.l2.ReadCleanReq_mshr_miss_latency::total    107832000                       # number of ReadCleanReq MSHR miss cycles
system.l2.ReadCleanReq_mshr_miss_rate::.cpu.inst     0.991828                       # mshr miss rate for ReadCleanReq accesses
system.l2.ReadCleanReq_mshr_miss_rate::total     0.991828                       # mshr miss rate for ReadCleanReq accesses
system.l2.ReadCleanReq_mshr_misses::.cpu.inst         1335                       # number of ReadCleanReq MSHR misses
system.l2.ReadCleanReq_mshr_misses::total         1335                       # number of ReadCleanReq MSHR misses
system.l2.ReadExReq_accesses::.cpu.data         28830                       # number of ReadExReq accesses(hits+misses)
system.l2.ReadExReq_accesses::total             28830                       # number of ReadExReq accesses(hits+misses)
system.l2.ReadExReq_avg_miss_latency::.cpu.data 96136.521237                       # average ReadExReq miss latency
system.l2.ReadExReq_avg_miss_latency::total 96136.521237                       # average ReadExReq miss latency
system.l2.ReadExReq_avg_mshr_miss_latency::.cpu.data 86136.521237                       # average ReadExReq mshr miss latency
system.l2.ReadExReq_avg_mshr_miss_latency::total 86136.521237                       # average ReadExReq mshr miss latency
system.l2.ReadExReq_hits::.cpu.data             25369                       # number of ReadExReq hits
system.l2.ReadExReq_hits::total                 25369                       # number of ReadExReq hits
system.l2.ReadExReq_miss_latency::.cpu.data    332728500                       # number of ReadExReq miss cycles
system.l2.ReadExReq_miss_latency::total     332728500                       # number of ReadExReq miss cycles
system.l2.ReadExReq_miss_rate::.cpu.data     0.120049                       # miss rate for ReadExReq accesses
system.l2.ReadExReq_miss_rate::total         0.120049                       # miss rate for ReadExReq accesses
system.l2.ReadExReq_misses::.cpu.data            3461                       # number of ReadExReq misses
system.l2.ReadExReq_misses::total                3461                       # number of ReadExReq misses
system.l2.ReadExReq_mshr_miss_latency::.cpu.data    298118500                       # number of ReadExReq MSHR miss cycles
system.l2.ReadExReq_mshr_miss_latency::total    298118500                       # number of ReadExReq MSHR miss cycles
system.l2.ReadExReq_mshr_miss_rate::.cpu.data     0.120049                       # mshr miss rate for ReadExReq accesses
system.l2.ReadExReq_mshr_miss_rate::total     0.120049                       # mshr miss rate for ReadExReq accesses
system.l2.ReadExReq_mshr_misses::.cpu.data         3461                       # number of ReadExReq MSHR misses
system.l2.ReadExReq_mshr_misses::total           3461                       # number of ReadExReq MSHR misses
system.l2.ReadSharedReq_accesses::.cpu.data        13179                       # number of ReadSharedReq accesses(hits+misses)
system.l2.ReadSharedReq_accesses::total         13179                       # number of ReadSharedReq accesses(hits+misses)
system.l2.ReadSharedReq_avg_miss_latency::.cpu.data 98201.402167                       # average ReadSharedReq miss latency
system.l2.ReadSharedReq_avg_miss_latency::total 98201.402167                       # average ReadSharedReq miss latency
system.l2.ReadSharedReq_avg_mshr_miss_latency::.cpu.data 88201.402167                       # average ReadSharedReq mshr miss latency
system.l2.ReadSharedReq_avg_mshr_miss_latency::total 88201.402167                       # average ReadSharedReq mshr miss latency
system.l2.ReadSharedReq_hits::.cpu.data         11610                       # number of ReadSharedReq hits
system.l2.ReadSharedReq_hits::total             11610                       # number of ReadSharedReq hits
system.l2.ReadSharedReq_miss_latency::.cpu.data    154078000                       # number of ReadSharedReq miss cycles
system.l2.ReadSharedReq_miss_latency::total    154078000                       # number of ReadSharedReq miss cycles
system.l2.ReadSharedReq_miss_rate::.cpu.data     0.119053                       # miss rate for ReadSharedReq accesses
system.l2.ReadSharedReq_miss_rate::total     0.119053                       # miss rate for ReadSharedReq accesses
system.l2.ReadSharedReq_misses::.cpu.data         1569                       # number of ReadSharedReq misses
system.l2.ReadSharedReq_misses::total            1569                       # number of ReadSharedReq misses
system.l2.ReadSharedReq_mshr_miss_latency::.cpu.data    138388000                       # number of ReadSharedReq MSHR miss cycles
system.l2.ReadSharedReq_mshr_miss_latency::total    138388000                       # number of ReadSharedReq MSHR miss cycles
system.l2.ReadSharedReq_mshr_miss_rate::.cpu.data     0.119053                       # mshr miss rate for ReadSharedReq accesses
system.l2.ReadSharedReq_mshr_miss_rate::total     0.119053                       # mshr miss rate for ReadSharedReq accesses
system.l2.ReadSharedReq_mshr_misses::.cpu.data         1569                       # number of ReadSharedReq MSHR misses
system.l2.ReadSharedReq_mshr_misses::total         1569                       # number of ReadSharedReq MSHR misses
system.l2.WritebackClean_accesses::.writebacks          167                       # number of WritebackClean accesses(hits+misses)
system.l2.WritebackClean_accesses::total          167                       # number of WritebackClean accesses(hits+misses)
system.l2.WritebackClean_hits::.writebacks          167                       # number of WritebackClean hits
system.l2.WritebackClean_hits::total              167                       # number of WritebackClean hits
system.l2.WritebackDirty_accesses::.writebacks        38902                       # number of WritebackDirty accesses(hits+misses)
system.l2.WritebackDirty_accesses::total        38902                       # number of WritebackDirty accesses(hits+misses)
system.l2.WritebackDirty_hits::.writebacks        38902                       # number of WritebackDirty hits
system.l2.WritebackDirty_hits::total            38902                       # number of WritebackDirty hits
system.l2.avg_blocked_cycles::no_mshrs            nan                       # average number of cycles each access was blocked
system.l2.avg_blocked_cycles::no_targets          nan                       # average number of cycles each access was blocked
system.l2.blocked::no_mshrs                         0                       # number of cycles access was blocked
system.l2.blocked::no_targets                       0                       # number of cycles access was blocked
system.l2.blocked_cycles::no_mshrs                  0                       # number of cycles access was blocked
system.l2.blocked_cycles::no_targets                0                       # number of cycles access was blocked
system.l2.demand_accesses::.cpu.inst             1346                       # number of demand (read+write) accesses
system.l2.demand_accesses::.cpu.data            42009                       # number of demand (read+write) accesses
system.l2.demand_accesses::total                43355                       # number of demand (read+write) accesses
system.l2.demand_avg_miss_latency::.cpu.inst 90773.033708                       # average overall miss latency
system.l2.demand_avg_miss_latency::.cpu.data 96780.616302                       # average overall miss latency
system.l2.demand_avg_miss_latency::total 95520.581304                       # average overall miss latency
system.l2.demand_avg_mshr_miss_latency::.cpu.inst 80773.033708                       # average overall mshr miss latency
system.l2.demand_avg_mshr_miss_latency::.cpu.data 86780.616302                       # average overall mshr miss latency
system.l2.demand_avg_mshr_miss_latency::total 85520.581304                       # average overall mshr miss latency
system.l2.demand_hits::.cpu.inst                   11                       # number of demand (read+write) hits
system.l2.demand_hits::.cpu.data                36979                       # number of demand (read+write) hits
system.l2.demand_hits::total                    36990                       # number of demand (read+write) hits
system.l2.demand_miss_latency::.cpu.inst    121182000                       # number of demand (read+write) miss cycles
system.l2.demand_miss_latency::.cpu.data    486806500                       # number of demand (read+write) miss cycles
system.l2.demand_miss_latency::total        607988500                       # number of demand (read+write) miss cycles
system.l2.demand_miss_rate::.cpu.inst        0.991828                       # miss rate for demand accesses
system.l2.demand_miss_rate::.cpu.data        0.119736                       # miss rate for demand accesses
system.l2.demand_miss_rate::total            0.146811                       # miss rate for demand accesses
system.l2.demand_misses::.cpu.inst               1335                       # number of demand (read+write) misses
system.l2.demand_misses::.cpu.data               5030                       # number of demand (read+write) misses
system.l2.demand_misses::total                   6365                       # number of demand (read+write) misses
system.l2.demand_mshr_miss_latency::.cpu.inst    107832000                       # number of demand (read+write) MSHR miss cycles
system.l2.demand_mshr_miss_latency::.cpu.data    436506500                       # number of demand (read+write) MSHR miss cycles
system.l2.demand_mshr_miss_latency::total    544338500                       # number of demand (read+write) MSHR miss cycles
system.l2.demand_mshr_miss_rate::.cpu.inst     0.991828                       # mshr miss rate for demand accesses
system.l2.demand_mshr_miss_rate::.cpu.data     0.119736                       # mshr miss rate for demand accesses
system.l2.demand_mshr_miss_rate::total       0.146811                       # mshr miss rate for demand accesses
system.l2.demand_mshr_misses::.cpu.inst          1335                       # number of demand (read+write) MSHR misses
system.l2.demand_mshr_misses::.cpu.data          5030                       # number of demand (read+write) MSHR misses
system.l2.demand_mshr_misses::total              6365                       # number of demand (read+write) MSHR misses
system.l2.overall_accesses::.cpu.inst            1346                       # number of overall (read+write) accesses
system.l2.overall_accesses::.cpu.data           42009                       # number of overall (read+write) accesses
system.l2.overall_accesses::total               43355                       # number of overall (read+write) accesses
system.l2.overall_avg_miss_latency::.cpu.inst 90773.033708                       # average overall miss latency
system.l2.overall_avg_miss_latency::.cpu.data 96780.616302                       # average overall miss latency
system.l2.overall_avg_miss_latency::total 95520.581304                       # average overall miss latency
system.l2.overall_avg_mshr_miss_latency::.cpu.inst 80773.033708                       # average overall mshr miss latency
system.l2.overall_avg_mshr_miss_latency::.cpu.data 86780.616302                       # average overall mshr miss latency
system.l2.overall_avg_mshr_miss_latency::total 85520.581304                       # average overall mshr miss latency
system.l2.overall_hits::.cpu.inst                  11                       # number of overall hits
system.l2.overall_hits::.cpu.data               36979                       # number of overall hits
system.l2.overall_hits::total                   36990                       # number of overall hits
system.l2.overall_miss_latency::.cpu.inst    121182000                       # number of overall miss cycles
system.l2.overall_miss_latency::.cpu.data    486806500                       # number of overall miss cycles
system.l2.overall_miss_latency::total       607988500                       # number of overall miss cycles
system.l2.overall_miss_rate::.cpu.inst       0.991828                       # miss rate for overall accesses
system.l2.overall_miss_rate::.cpu.data       0.119736                       # miss rate for overall accesses
system.l2.overall_miss_rate::total           0.146811                       # miss rate for overall accesses
system.l2.overall_misses::.cpu.inst              1335                       # number of overall misses
system.l2.overall_misses::.cpu.data              5030                       # number of overall misses
system.l2.overall_misses::total                  6365                       # number of overall misses
system.l2.overall_mshr_miss_latency::.cpu.inst    107832000                       # number of overall MSHR miss cycles
system.l2.overall_mshr_miss_latency::.cpu.data    436506500                       # number of overall MSHR miss cycles
system.l2.overall_mshr_miss_latency::total    544338500                       # number of overall MSHR miss cycles
system.l2.overall_mshr_miss_rate::.cpu.inst     0.991828                       # mshr miss rate for overall accesses
system.l2.overall_mshr_miss_rate::.cpu.data     0.119736                       # mshr miss rate for overall accesses
system.l2.overall_mshr_miss_rate::total      0.146811                       # mshr miss rate for overall accesses
system.l2.overall_mshr_misses::.cpu.inst         1335                       # number of overall MSHR misses
system.l2.overall_mshr_misses::.cpu.data         5030                       # number of overall MSHR misses
system.l2.overall_mshr_misses::total             6365                       # number of overall MSHR misses
system.l2.pwrStateResidencyTicks::UNDEFINED 191148934500                       # Cumulative time (in ticks) in various power states
system.l2.replacements                              0                       # number of replacements
system.l2.tags.age_task_id_blocks_1024::4         6365                       # Occupied blocks per task id
system.l2.tags.avg_refs                     13.115789                       # Average number of references to valid blocks.
system.l2.tags.data_accesses                    89847                       # Number of data accesses
system.l2.tags.occ_blocks::.cpu.inst      1325.060246                       # Average occupied blocks per requestor
system.l2.tags.occ_blocks::.cpu.data      4086.621927                       # Average occupied blocks per requestor
system.l2.tags.occ_percent::.cpu.inst        0.020219                       # Average percentage of cache occupancy
system.l2.tags.occ_percent::.cpu.data        0.062357                       # Average percentage of cache occupancy
system.l2.tags.occ_percent::total            0.082576                       # Average percentage of cache occupancy
system.l2.tags.occ_task_id_blocks::1024          6365                       # Occupied blocks per task id
system.l2.tags.occ_task_id_percent::1024     0.097122                       # Percentage of cache occupancy per task id
system.l2.tags.pwrStateResidencyTicks::UNDEFINED 191148934500                       # Cumulative time (in ticks) in various power states
system.l2.tags.sampled_refs                      6365                       # Sample count of references to valid blocks.
system.l2.tags.tag_accesses                     89847                       # Number of tag accesses
system.l2.tags.tagsinuse                  5411.682173                       # Cycle average of tags in use
system.l2.tags.total_refs                       83482                       # Total number of references to valid blocks.
system.l2.tags.warmup_cycle                     77000                       # Cycle when the warmup percentage was hit.
system.mem_ctrls.avgBusLat                    5000.00                       # Average bus latency per DRAM burst
system.mem_ctrls.avgGap                   27230419.25                       # Average gap between requests
system.mem_ctrls.avgMemAccLat                44607.27                       # Average memory access latency per DRAM burst
system.mem_ctrls.avgPriority_.cpu.inst::samples      1335.00                       # Average QoS priority value for accepted requests
system.mem_ctrls.avgPriority_.cpu.data::samples      5030.00                       # Average QoS priority value for accepted requests
system.mem_ctrls.avgQLat                     25857.27                       # Average queueing delay per DRAM burst
system.mem_ctrls.avgRdBW                         2.13                       # Average DRAM read bandwidth in MiByte/s
system.mem_ctrls.avgRdBWSys                      2.13                       # Average system read bandwidth in MiByte/s
system.mem_ctrls.avgRdQLen                       1.04                       # Average read queue length when enqueuing
system.mem_ctrls.avgWrBW                         0.00                       # Average achieved write bandwidth in MiByte/s
system.mem_ctrls.avgWrBWSys                      0.00                       # Average system write bandwidth in MiByte/s
system.mem_ctrls.avgWrQLen                       0.00                       # Average write queue length when enqueuing
system.mem_ctrls.busUtil                         0.02                       # Data bus utilization in percentage
system.mem_ctrls.busUtilRead                     0.02                       # Data bus utilization in percentage for reads
system.mem_ctrls.busUtilWrite                    0.00                       # Data bus utilization in percentage for writes
system.mem_ctrls.bw_inst_read::.cpu.inst       446981                       # Instruction read bandwidth from this memory (bytes/s)
system.mem_ctrls.bw_inst_read::total           446981                       # Instruction read bandwidth from this memory (bytes/s)
system.mem_ctrls.bw_read::.cpu.inst            446981                       # Total read bandwidth from this memory (bytes/s)
system.mem_ctrls.bw_read::.cpu.data           1684132                       # Total read bandwidth from this memory (bytes/s)
system.mem_ctrls.bw_read::total               2131113                       # Total read bandwidth from this memory (bytes/s)
system.mem_ctrls.bw_total::.cpu.inst           446981                       # Total bandwidth to/from this memory (bytes/s)
system.mem_ctrls.bw_total::.cpu.data          1684132                       # Total bandwidth to/from this memory (bytes/s)
system.mem_ctrls.bw_total::total              2131113                       # Total bandwidth to/from this memory (bytes/s)
system.mem_ctrls.bytesPerActivate::samples         2367                       # Bytes accessed per row activation
system.mem_ctrls.bytesPerActivate::mean    172.099704                       # Bytes accessed per row activation
system.mem_ctrls.bytesPerActivate::gmean    99.534691                       # Bytes accessed per row activation
system.mem_ctrls.bytesPerActivate::stdev   258.600977                       # Bytes accessed per row activation
system.mem_ctrls.bytesPerActivate::0-127         1751     73.98%     73.98% # Bytes accessed per row activation
system.mem_ctrls.bytesPerActivate::128-255          243     10.27%     84.24% # Bytes accessed per row activation
system.mem_ctrls.bytesPerActivate::256-383           79      3.34%     87.58% # Bytes accessed per row activation
system.mem_ctrls.bytesPerActivate::384-511           62      2.62%     90.20% # Bytes accessed per row activation
system.mem_ctrls.bytesPerActivate::512-639           20      0.84%     91.04% # Bytes accessed per row activation
system.mem_ctrls.bytesPerActivate::640-767           24      1.01%     92.06% # Bytes accessed per row activation
system.mem_ctrls.bytesPerActivate::768-895           29      1.23%     93.28% # Bytes accessed per row activation
system.mem_ctrls.bytesPerActivate::896-1023           17      0.72%     94.00% # Bytes accessed per row activation
system.mem_ctrls.bytesPerActivate::1024-1151          142      6.00%    100.00% # Bytes accessed per row activation
system.mem_ctrls.bytesPerActivate::total         2367                       # Bytes accessed per row activation
system.mem_ctrls.bytesReadDRAM                 407360                       # Total number of bytes read from DRAM
system.mem_ctrls.bytesReadSys                  407360                       # Total read bytes from the system interface side
system.mem_ctrls.bytesReadWrQ                       0                       # Total number of bytes read from write queue
system.mem_ctrls.bytesWritten                       0                       # Total number of bytes written to DRAM
system.mem_ctrls.bytesWrittenSys                    0                       # Total written bytes from the system interface side
system.mem_ctrls.bytes_inst_read::.cpu.inst        85440                       # Number of instructions bytes read from this memory
system.mem_ctrls.bytes_inst_read::total         85440                       # Number of instructions bytes read from this memory
system.mem_ctrls.bytes_read::.cpu.inst          85440                       # Number of bytes read from this memory
system.mem_ctrls.bytes_read::.cpu.data         321920                       # Number of bytes read from this memory
system.mem_ctrls.bytes_read::total             407360                       # Number of bytes read from this memory
system.mem_ctrls.masterReadAccesses::.cpu.inst         1335                       # Per-master read serviced memory accesses
system.mem_ctrls.masterReadAccesses::.cpu.data         5030                       # Per-master read serviced memory accesses
system.mem_ctrls.masterReadAvgLat::.cpu.inst     39947.19                       # Per-master read average memory access latency
system.mem_ctrls.masterReadAvgLat::.cpu.data     45844.09                       # Per-master read average memory access latency
system.mem_ctrls.masterReadBytes::.cpu.inst        85440                       # Per-master bytes read from memory
system.mem_ctrls.masterReadBytes::.cpu.data       321920                       # Per-master bytes read from memory
system.mem_ctrls.masterReadRate::.cpu.inst 446981.303994660731                       # Per-master bytes read from memory rate (Bytes/sec)
system.mem_ctrls.masterReadRate::.cpu.data 1684131.804564152611                       # Per-master bytes read from memory rate (Bytes/sec)
system.mem_ctrls.masterReadTotalLat::.cpu.inst     53329500                       # Per-master read total memory access latency
system.mem_ctrls.masterReadTotalLat::.cpu.data    230595750                       # Per-master read total memory access latency
system.mem_ctrls.mergedWrBursts                     0                       # Number of DRAM write bursts merged with an existing one
system.mem_ctrls.neitherReadNorWriteReqs            0                       # Number of requests that are neither read nor write
system.mem_ctrls.numRdRetry                         0                       # Number of times read queue was full causing retry
system.mem_ctrls.numReadWriteTurnArounds            0                       # Number of turnarounds from READ to WRITE
system.mem_ctrls.numStayReadState               14052                       # Number of times bus staying in READ state
system.mem_ctrls.numStayWriteState                  0                       # Number of times bus staying in WRITE state
system.mem_ctrls.numWrRetry                         0                       # Number of times write queue was full causing retry
system.mem_ctrls.numWriteReadTurnArounds            0                       # Number of turnarounds from WRITE to READ
system.mem_ctrls.num_reads::.cpu.inst            1335                       # Number of read requests responded to by this memory
system.mem_ctrls.num_reads::.cpu.data            5030                       # Number of read requests responded to by this memory
system.mem_ctrls.num_reads::total                6365                       # Number of read requests responded to by this memory
system.mem_ctrls.pageHitRate                    62.81                       # Row buffer hit rate, read and write combined
system.mem_ctrls.peakBW                      12800.00                       # Theoretical peak bandwidth in MiByte/s
system.mem_ctrls.perBankRdBursts::0               314                       # Per bank write bursts
system.mem_ctrls.perBankRdBursts::1               346                       # Per bank write bursts
system.mem_ctrls.perBankRdBursts::2               432                       # Per bank write bursts
system.mem_ctrls.perBankRdBursts::3               319                       # Per bank write bursts
system.mem_ctrls.perBankRdBursts::4               470                       # Per bank write bursts
system.mem_ctrls.perBankRdBursts::5               408                       # Per bank write bursts
system.mem_ctrls.perBankRdBursts::6               340                       # Per bank write bursts
system.mem_ctrls.perBankRdBursts::7               404                       # Per bank write bursts
system.mem_ctrls.perBankRdBursts::8               518                       # Per bank write bursts
system.mem_ctrls.perBankRdBursts::9               513                       # Per bank write bursts
system.mem_ctrls.perBankRdBursts::10              520                       # Per bank write bursts
system.mem_ctrls.perBankRdBursts::11              467                       # Per bank write bursts
system.mem_ctrls.perBankRdBursts::12              365                       # Per bank write bursts
system.mem_ctrls.perBankRdBursts::13              321                       # Per bank write bursts
system.mem_ctrls.perBankRdBursts::14              303                       # Per bank write bursts
system.mem_ctrls.perBankRdBursts::15              325                       # Per bank write bursts
system.mem_ctrls.perBankWrBursts::0                 0                       # Per bank write bursts
system.mem_ctrls.perBankWrBursts::1                 0                       # Per bank write bursts
system.mem_ctrls.perBankWrBursts::2                 0                       # Per bank write bursts
system.mem_ctrls.perBankWrBursts::3                 0                       # Per bank write bursts
system.mem_ctrls.perBankWrBursts::4                 0                       # Per bank write bursts
system.mem_ctrls.perBankWrBursts::5                 0                       # Per bank write bursts
system.mem_ctrls.perBankWrBursts::6                 0                       # Per bank write bursts
system.mem_ctrls.perBankWrBursts::7                 0                       # Per bank write bursts
system.mem_ctrls.perBankWrBursts::8                 0                       # Per bank write bursts
system.mem_ctrls.perBankWrBursts::9                 0                       # Per bank write bursts
system.mem_ctrls.perBankWrBursts::10                0                       # Per bank write bursts
system.mem_ctrls.perBankWrBursts::11                0                       # Per bank write bursts
system.mem_ctrls.perBankWrBursts::12                0                       # Per bank write bursts
system.mem_ctrls.perBankWrBursts::13                0                       # Per bank write bursts
system.mem_ctrls.perBankWrBursts::14                0                       # Per bank write bursts
system.mem_ctrls.perBankWrBursts::15                0                       # Per bank write bursts
system.mem_ctrls.priorityMaxLatency      0.000001100750                       # per QoS priority maximum request to response latency (s)
system.mem_ctrls.priorityMinLatency      0.000000018750                       # per QoS priority minimum request to response latency (s)
system.mem_ctrls.pwrStateResidencyTicks::UNDEFINED 191148934500                       # Cumulative time (in ticks) in various power states
system.mem_ctrls.rdQLenPdf::0                    5871                       # What read queue length does an incoming req see
system.mem_ctrls.rdQLenPdf::1                     449                       # What read queue length does an incoming req see
system.mem_ctrls.rdQLenPdf::2                      35                       # What read queue length does an incoming req see
system.mem_ctrls.rdQLenPdf::3                      10                       # What read queue length does an incoming req see
system.mem_ctrls.rdQLenPdf::4                       0                       # What read queue length does an incoming req see
system.mem_ctrls.rdQLenPdf::5                       0                       # What read queue length does an incoming req see
system.mem_ctrls.rdQLenPdf::6                       0                       # What read queue length does an incoming req see
system.mem_ctrls.rdQLenPdf::7                       0                       # What read queue length does an incoming req see
system.mem_ctrls.rdQLenPdf::8                       0                       # What read queue length does an incoming req see
system.mem_ctrls.rdQLenPdf::9                       0                       # What read queue length does an incoming req see
system.mem_ctrls.rdQLenPdf::10                      0                       # What read queue length does an incoming req see
system.mem_ctrls.rdQLenPdf::11                      0                       # What read queue length does an incoming req see
system.mem_ctrls.rdQLenPdf::12                      0                       # What read queue length does an incoming req see
system.mem_ctrls.rdQLenPdf::13                      0                       # What read queue length does an incoming req see
system.mem_ctrls.rdQLenPdf::14                      0                       # What read queue length does an incoming req see
system.mem_ctrls.rdQLenPdf::15                      0                       # What read queue length does an incoming req see
system.mem_ctrls.rdQLenPdf::16                      0                       # What read queue length does an incoming req see
system.mem_ctrls.rdQLenPdf::17                      0                       # What read queue length does an incoming req see
system.mem_ctrls.rdQLenPdf::18                      0                       # What read queue length does an incoming req see
system.mem_ctrls.rdQLenPdf::19                      0                       # What read queue length does an incoming req see
system.mem_ctrls.rdQLenPdf::20                      0                       # What read queue length does an incoming req see
system.mem_ctrls.rdQLenPdf::21                      0                       # What read queue length does an incoming req see
system.mem_ctrls.rdQLenPdf::22                      0                       # What read queue length does an incoming req see
system.mem_ctrls.rdQLenPdf::23                      0                       # What read queue length does an incoming req see
system.mem_ctrls.rdQLenPdf::24                      0                       # What read queue length does an incoming req see
system.mem_ctrls.rdQLenPdf::25                      0                       # What read queue length does an incoming req see
system.mem_ctrls.rdQLenPdf::26                      0                       # What read queue length does an incoming req see
system.mem_ctrls.rdQLenPdf::27                      0                       # What read queue length does an incoming req see
system.mem_ctrls.rdQLenPdf::28                      0                       # What read queue length does an incoming req see
system.mem_ctrls.rdQLenPdf::29                      0                       # What read queue length does an incoming req see
system.mem_ctrls.rdQLenPdf::30                      0                       # What read queue length does an incoming req see
system.mem_ctrls.rdQLenPdf::31                      0                       # What read queue length does an incoming req see
system.mem_ctrls.readBursts                      6365                       # Number of DRAM read bursts, including those serviced by the write queue
system.mem_ctrls.readPktSize::0                     0                       # Read request sizes (log2)
system.mem_ctrls.readPktSize::1                     0                       # Read request sizes (log2)
system.mem_ctrls.readPktSize::2                     0                       # Read request sizes (log2)
system.mem_ctrls.readPktSize::3                     0                       # Read request sizes (log2)
system.mem_ctrls.readPktSize::4                     0                       # Read request sizes (log2)
system.mem_ctrls.readPktSize::5                     0                       # Read request sizes (log2)
system.mem_ctrls.readPktSize::6                  6365                       # Read request sizes (log2)
system.mem_ctrls.readReqs                        6365                       # Number of read requests accepted
system.mem_ctrls.readRowHitRate                 62.81                       # Row buffer hit rate for reads
system.mem_ctrls.readRowHits                     3998                       # Number of row buffer hits during reads
system.mem_ctrls.servicedByWrQ                      0                       # Number of DRAM read bursts serviced by the write queue
system.mem_ctrls.totBusLat                   31825000                       # Total ticks spent in databus transfers
system.mem_ctrls.totGap                  173321618500                       # Total gap between requests
system.mem_ctrls.totMemAccLat               283925250                       # Total ticks spent from burst creation until serviced by the DRAM
system.mem_ctrls.totQLat                    164581500                       # Total ticks spent queuing
system.mem_ctrls.wrQLenPdf::0                       0                       # What write queue length does an incoming req see
system.mem_ctrls.wrQLenPdf::1                       0                       # What write queue length does an incoming req see
system.mem_ctrls.wrQLenPdf::2                       0                       # What write queue length does an incoming req see
system.mem_ctrls.wrQLenPdf::3                       0                       # What write queue length does an incoming req see
system.mem_ctrls.wrQLenPdf::4                       0                       # What write queue length does an incoming req see
system.mem_ctrls.wrQLenPdf::5                       0                       # What write queue length does an incoming req see
system.mem_ctrls.wrQLenPdf::6                       0                       # What write queue length does an incoming req see
system.mem_ctrls.wrQLenPdf::7                       0                       # What write queue length does an incoming req see
system.mem_ctrls.wrQLenPdf::8                       0                       # What write queue length does an incoming req see
system.mem_ctrls.wrQLenPdf::9                       0                       # What write queue length does an incoming req see
system.mem_ctrls.wrQLenPdf::10                      0                       # What write queue length does an incoming req see
system.mem_ctrls.wrQLenPdf::11                      0                       # What write queue length does an incoming req see
system.mem_ctrls.wrQLenPdf::12                      0                       # What write queue length does an incoming req see
system.mem_ctrls.wrQLenPdf::13                      0                       # What write queue length does an incoming req see
system.mem_ctrls.wrQLenPdf::14                      0                       # What write queue length does an incoming req see
system.mem_ctrls.wrQLenPdf::15                      0                       # What write queue length does an incoming req see
system.mem_ctrls.wrQLenPdf::16                      0                       # What write queue length does an incoming req see
system.mem_ctrls.wrQLenPdf::17                      0                       # What write queue length does an incoming req see
system.mem_ctrls.wrQLenPdf::18                      0                       # What write queue length does an incoming req see
system.mem_ctrls.wrQLenPdf::19                      0                       # What write queue length does an incoming req see
system.mem_ctrls.wrQLenPdf::20                      0                       # What write queue length does an incoming req see
system.mem_ctrls.wrQLenPdf::21                      0                       # What write queue length does an incoming req see
system.mem_ctrls.wrQLenPdf::22                      0                       # What write queue length does an incoming req see
system.mem_ctrls.wrQLenPdf::23                      0                       # What write queue length does an incoming req see
system.mem_ctrls.wrQLenPdf::24                      0                       # What write queue length does an incoming req see
system.mem_ctrls.wrQLenPdf::25                      0                       # What write queue length does an incoming req see
system.mem_ctrls.wrQLenPdf::26                      0                       # What write queue length does an incoming req see
system.mem_ctrls.wrQLenPdf::27                      0                       # What write queue length does an incoming req see
system.mem_ctrls.wrQLenPdf::28                      0                       # What write queue length does an incoming req see
system.mem_ctrls.wrQLenPdf::29                      0                       # What write queue length does an incoming req see
system.mem_ctrls.wrQLenPdf::30                      0                       # What write queue length does an incoming req see
system.mem_ctrls.wrQLenPdf::31                      0                       # What write queue length does an incoming req see
system.mem_ctrls.wrQLenPdf::32                      0                       # What write queue length does an incoming req see
system.mem_ctrls.wrQLenPdf::33                      0                       # What write queue length does an incoming req see
system.mem_ctrls.wrQLenPdf::34                      0                       # What write queue length does an incoming req see
system.mem_ctrls.wrQLenPdf::35                      0                       # What write queue length does an incoming req see
system.mem_ctrls.wrQLenPdf::36                      0                       # What write queue length does an incoming req see
system.mem_ctrls.wrQLenPdf::37                      0                       # What write queue length does an incoming req see
system.mem_ctrls.wrQLenPdf::38                      0                       # What write queue length does an incoming req see
system.mem_ctrls.wrQLenPdf::39                      0                       # What write queue length does an incoming req see
system.mem_ctrls.wrQLenPdf::40                      0                       # What write queue length does an incoming req see
system.mem_ctrls.wrQLenPdf::41                      0                       # What write queue length does an incoming req see
system.mem_ctrls.wrQLenPdf::42                      0                       # What write queue length does an incoming req see
system.mem_ctrls.wrQLenPdf::43                      0                       # What write queue length does an incoming req see
system.mem_ctrls.wrQLenPdf::44                      0                       # What write queue length does an incoming req see
system.mem_ctrls.wrQLenPdf::45                      0                       # What write queue length does an incoming req see
system.mem_ctrls.wrQLenPdf::46                      0                       # What write queue length does an incoming req see
system.mem_ctrls.wrQLenPdf::47                      0                       # What write queue length does an incoming req see
system.mem_ctrls.wrQLenPdf::48                      0                       # What write queue length does an incoming req see
system.mem_ctrls.wrQLenPdf::49                      0                       # What write queue length does an incoming req see
system.mem_ctrls.wrQLenPdf::50                      0                       # What write queue length does an incoming req see
system.mem_ctrls.wrQLenPdf::51                      0                       # What write queue length does an incoming req see
system.mem_ctrls.wrQLenPdf::52                      0                       # What write queue length does an incoming req see
system.mem_ctrls.wrQLenPdf::53                      0                       # What write queue length does an incoming req see
system.mem_ctrls.wrQLenPdf::54                      0                       # What write queue length does an incoming req see
system.mem_ctrls.wrQLenPdf::55                      0                       # What write queue length does an incoming req see
system.mem_ctrls.wrQLenPdf::56                      0                       # What write queue length does an incoming req see
system.mem_ctrls.wrQLenPdf::57                      0                       # What write queue length does an incoming req see
system.mem_ctrls.wrQLenPdf::58                      0                       # What write queue length does an incoming req see
system.mem_ctrls.wrQLenPdf::59                      0                       # What write queue length does an incoming req see
system.mem_ctrls.wrQLenPdf::60                      0                       # What write queue length does an incoming req see
system.mem_ctrls.wrQLenPdf::61                      0                       # What write queue length does an incoming req see
system.mem_ctrls.wrQLenPdf::62                      0                       # What write queue length does an incoming req see
system.mem_ctrls.wrQLenPdf::63                      0                       # What write queue length does an incoming req see
system.mem_ctrls.writeBursts                        0                       # Number of DRAM write bursts, including those merged in the write queue
system.mem_ctrls.writePktSize::0                    0                       # Write request sizes (log2)
system.mem_ctrls.writePktSize::1                    0                       # Write request sizes (log2)
system.mem_ctrls.writePktSize::2                    0                       # Write request sizes (log2)
system.mem_ctrls.writePktSize::3                    0                       # Write request sizes (log2)
system.mem_ctrls.writePktSize::4                    0                       # Write request sizes (log2)
system.mem_ctrls.writePktSize::5                    0                       # Write request sizes (log2)
system.mem_ctrls.writePktSize::6                    0                       # Write request sizes (log2)
system.mem_ctrls.writeReqs                          0                       # Number of write requests accepted
system.mem_ctrls.writeRowHitRate                  nan                       # Row buffer hit rate for writes
system.mem_ctrls.writeRowHits                       0                       # Number of row buffer hits during writes
system.mem_ctrls_0.actBackEnergy            117937560                       # Energy for active background per rank (pJ)
system.mem_ctrls_0.actEnergy                  8368080                       # Energy for activate commands per rank (pJ)
system.mem_ctrls_0.actPowerDownEnergy      1847612250                       # Energy for active power-down per rank (pJ)
system.mem_ctrls_0.averagePower            248.180744                       # Core power per rank (mW)
system.mem_ctrls_0.memoryStateTime::IDLE     19379500                       # Time in different power states
system.mem_ctrls_0.memoryStateTime::REF     177320000                       # Time in different power states
system.mem_ctrls_0.memoryStateTime::SREF 185815463750                       # Time in different power states
system.mem_ctrls_0.memoryStateTime::PRE_PDN    985254500                       # Time in different power states
system.mem_ctrls_0.memoryStateTime::ACT      99878500                       # Time in different power states
system.mem_ctrls_0.memoryStateTime::ACT_PDN   4051638250                       # Time in different power states
system.mem_ctrls_0.preBackEnergy             14262720                       # Energy for precharge background per rank (pJ)
system.mem_ctrls_0.preEnergy                  4447740                       # Energy for precharge commands per rank (pJ)
system.mem_ctrls_0.prePowerDownEnergy       378291360                       # Energy for precharge power-down per rank (pJ)
system.mem_ctrls_0.readEnergy                21655620                       # Energy for read commands per rank (pJ)
system.mem_ctrls_0.refreshEnergy         419184480.000000                       # Energy for refresh commands per rank (pJ)
system.mem_ctrls_0.selfRefreshEnergy      44627375880                       # Energy for self refresh per rank (pJ)
system.mem_ctrls_0.totalEnergy            47439484710                       # Total energy per rank (pJ)
system.mem_ctrls_0.totalIdleTime         173039939250                       # Total Idle time Per DRAM Rank
system.mem_ctrls_0.writeEnergy                      0                       # Energy for write commands per rank (pJ)
system.mem_ctrls_1.actBackEnergy            115312140                       # Energy for active background per rank (pJ)
system.mem_ctrls_1.actEnergy                  8532300                       # Energy for activate commands per rank (pJ)
system.mem_ctrls_1.actPowerDownEnergy      1307244840                       # Energy for active power-down per rank (pJ)
system.mem_ctrls_1.averagePower            247.371128                       # Core power per rank (mW)
system.mem_ctrls_1.memoryStateTime::IDLE     16705000                       # Time in different power states
system.mem_ctrls_1.memoryStateTime::REF     167700000                       # Time in different power states
system.mem_ctrls_1.memoryStateTime::SREF 186106867000                       # Time in different power states
system.mem_ctrls_1.memoryStateTime::PRE_PDN   1887784250                       # Time in different power states
system.mem_ctrls_1.memoryStateTime::ACT     103026000                       # Time in different power states
system.mem_ctrls_1.memoryStateTime::ACT_PDN   2866852250                       # Time in different power states
system.mem_ctrls_1.preBackEnergy             13098720                       # Energy for precharge background per rank (pJ)
system.mem_ctrls_1.preEnergy                  4535025                       # Energy for precharge commands per rank (pJ)
system.mem_ctrls_1.prePowerDownEnergy       724914240                       # Energy for precharge power-down per rank (pJ)
system.mem_ctrls_1.readEnergy                23790480                       # Energy for read commands per rank (pJ)
system.mem_ctrls_1.refreshEnergy         396442800.000000                       # Energy for refresh commands per rank (pJ)
system.mem_ctrls_1.selfRefreshEnergy      44690622900                       # Energy for self refresh per rank (pJ)
system.mem_ctrls_1.totalEnergy            47284727595                       # Total energy per rank (pJ)
system.mem_ctrls_1.totalIdleTime         173042241000                       # Total Idle time Per DRAM Rank
system.mem_ctrls_1.writeEnergy                      0                       # Energy for write commands per rank (pJ)
system.membus.pkt_count_system.l2.mem_side::system.mem_ctrls.port        12730                       # Packet count per connected master and slave (bytes)
system.membus.pkt_count_system.l2.mem_side::total        12730                       # Packet count per connected master and slave (bytes)
system.membus.pkt_count::total                  12730                       # Packet count per connected master and slave (bytes)
system.membus.pkt_size_system.l2.mem_side::system.mem_ctrls.port       407360                       # Cumulative packet size per connected master and slave (bytes)
system.membus.pkt_size_system.l2.mem_side::total       407360                       # Cumulative packet size per connected master and slave (bytes)
system.membus.pkt_size::total                  407360                       # Cumulative packet size per connected master and slave (bytes)
system.membus.pwrStateResidencyTicks::UNDEFINED 191148934500                       # Cumulative time (in ticks) in various power states
system.membus.reqLayer2.occupancy             6822000                       # Layer occupancy (ticks)
system.membus.reqLayer2.utilization               0.0                       # Layer utilization (%)
system.membus.respLayer1.occupancy           33865500                       # Layer occupancy (ticks)
system.membus.respLayer1.utilization              0.0                       # Layer utilization (%)
system.membus.snoopTraffic                          0                       # Total snoop traffic (bytes)
system.membus.snoop_fanout::samples              6365                       # Request fanout histogram
system.membus.snoop_fanout::mean                    0                       # Request fanout histogram
system.membus.snoop_fanout::stdev                   0                       # Request fanout histogram
system.membus.snoop_fanout::underflows              0      0.00%      0.00% # Request fanout histogram
system.membus.snoop_fanout::0                    6365    100.00%    100.00% # Request fanout histogram
system.membus.snoop_fanout::1                       0      0.00%    100.00% # Request fanout histogram
system.membus.snoop_fanout::overflows               0      0.00%    100.00% # Request fanout histogram
system.membus.snoop_fanout::min_value               0                       # Request fanout histogram
system.membus.snoop_fanout::max_value               0                       # Request fanout histogram
system.membus.snoop_fanout::total                6365                       # Request fanout histogram
system.membus.snoop_filter.hit_multi_requests            0                       # Number of requests hitting in the snoop filter with multiple (>1) holders of the requested data.
system.membus.snoop_filter.hit_multi_snoops            0                       # Number of snoops hitting in the snoop filter with multiple (>1) holders of the requested data.
system.membus.snoop_filter.hit_single_requests            0                       # Number of requests hitting in the snoop filter with a single holder of the requested data.
system.membus.snoop_filter.hit_single_snoops            0                       # Number of snoops hitting in the snoop filter with a single holder of the requested data.
system.membus.snoop_filter.tot_requests          6365                       # Total number of requests made to the snoop filter.
system.membus.snoop_filter.tot_snoops               0                       # Total number of snoops made to the snoop filter.
system.membus.snoops                                0                       # Total snoops (count)
system.membus.trans_dist::ReadResp               2904                       # Transaction distribution
system.membus.trans_dist::ReadExReq              3461                       # Transaction distribution
system.membus.trans_dist::ReadExResp             3461                       # Transaction distribution
system.membus.trans_dist::ReadSharedReq          2904                       # Transaction distribution
system.pwrStateResidencyTicks::UNDEFINED 191148934500                       # Cumulative time (in ticks) in various power states
system.tol2bus.pkt_count_system.cpu.icache.mem_side::system.l2.cpu_side         2859                       # Packet count per connected master and slave (bytes)
system.tol2bus.pkt_count_system.cpu.dcache.mem_side::system.l2.cpu_side       123979                       # Packet count per connected master and slave (bytes)
system.tol2bus.pkt_count::total                126838                       # Packet count per connected master and slave (bytes)
system.tol2bus.pkt_size_system.cpu.icache.mem_side::system.l2.cpu_side        96832                       # Cumulative packet size per connected master and slave (bytes)
system.tol2bus.pkt_size_system.cpu.dcache.mem_side::system.l2.cpu_side      5178304                       # Cumulative packet size per connected master and slave (bytes)
system.tol2bus.pkt_size::total                5275136                       # Cumulative packet size per connected master and slave (bytes)
system.tol2bus.pwrStateResidencyTicks::UNDEFINED 191148934500                       # Cumulative time (in ticks) in various power states
system.tol2bus.reqLayer0.occupancy           80810500                       # Layer occupancy (ticks)
system.tol2bus.reqLayer0.utilization              0.0                       # Layer utilization (%)
system.tol2bus.respLayer0.occupancy           2019000                       # Layer occupancy (ticks)
system.tol2bus.respLayer0.utilization             0.0                       # Layer utilization (%)
system.tol2bus.respLayer1.occupancy          63013500                       # Layer occupancy (ticks)
system.tol2bus.respLayer1.utilization             0.0                       # Layer utilization (%)
system.tol2bus.snoopTraffic                         0                       # Total snoop traffic (bytes)
system.tol2bus.snoop_fanout::samples            43355                       # Request fanout histogram
system.tol2bus.snoop_fanout::mean            0.000023                       # Request fanout histogram
system.tol2bus.snoop_fanout::stdev           0.004803                       # Request fanout histogram
system.tol2bus.snoop_fanout::underflows             0      0.00%      0.00% # Request fanout histogram
system.tol2bus.snoop_fanout::0                  43354    100.00%    100.00% # Request fanout histogram
system.tol2bus.snoop_fanout::1                      1      0.00%    100.00% # Request fanout histogram
system.tol2bus.snoop_fanout::2                      0      0.00%    100.00% # Request fanout histogram
system.tol2bus.snoop_fanout::3                      0      0.00%    100.00% # Request fanout histogram
system.tol2bus.snoop_fanout::4                      0      0.00%    100.00% # Request fanout histogram
system.tol2bus.snoop_fanout::overflows              0      0.00%    100.00% # Request fanout histogram
system.tol2bus.snoop_fanout::min_value              0                       # Request fanout histogram
system.tol2bus.snoop_fanout::max_value              1                       # Request fanout histogram
system.tol2bus.snoop_fanout::total              43355                       # Request fanout histogram
system.tol2bus.snoop_filter.hit_multi_requests            1                       # Number of requests hitting in the snoop filter with multiple (>1) holders of the requested data.
system.tol2bus.snoop_filter.hit_multi_snoops            0                       # Number of snoops hitting in the snoop filter with multiple (>1) holders of the requested data.
system.tol2bus.snoop_filter.hit_single_requests        40128                       # Number of requests hitting in the snoop filter with a single holder of the requested data.
system.tol2bus.snoop_filter.hit_single_snoops            0                       # Number of snoops hitting in the snoop filter with a single holder of the requested data.
system.tol2bus.snoop_filter.tot_requests        83483                       # Total number of requests made to the snoop filter.
system.tol2bus.snoop_filter.tot_snoops              0                       # Total number of snoops made to the snoop filter.
system.tol2bus.snoops                               0                       # Total snoops (count)
system.tol2bus.trans_dist::ReadResp             14525                       # Transaction distribution
system.tol2bus.trans_dist::WritebackDirty        38902                       # Transaction distribution
system.tol2bus.trans_dist::WritebackClean          167                       # Transaction distribution
system.tol2bus.trans_dist::CleanEvict            1059                       # Transaction distribution
system.tol2bus.trans_dist::ReadExReq            28830                       # Transaction distribution
system.tol2bus.trans_dist::ReadExResp           28830                       # Transaction distribution
system.tol2bus.trans_dist::ReadCleanReq          1346                       # Transaction distribution
system.tol2bus.trans_dist::ReadSharedReq        13179                       # Transaction distribution
system.voltage_domain.voltage                       1                       # Voltage in Volts

---------- End Simulation Statistics   ----------
