
---------- Begin Simulation Statistics ----------
final_tick                               390431306500                       # Number of ticks from beginning of simulation (restored from checkpoints and never reset)
host_inst_rate                                 463358                       # Simulator instruction rate (inst/s)
host_mem_usage                                 810764                       # Number of bytes of host memory used
host_op_rate                                   582877                       # Simulator op (including micro ops) rate (op/s)
host_seconds                                   215.82                       # Real time elapsed on the host
host_tick_rate                             1809093152                       # Simulator tick rate (ticks/s)
sim_freq                                 1000000000000                       # Frequency of simulated ticks
sim_insts                                   100000000                       # Number of instructions simulated
sim_ops                                     125794192                       # Number of ops (including micro ops) simulated
sim_seconds                                  0.390431                       # Number of seconds simulated
sim_ticks                                390431306500                       # Number of ticks simulated
system.clk_domain.clock                          1000                       # Clock period in ticks
system.cpu.Branches                           5058750                       # Number of branches fetched
system.cpu.apic_clk_domain.clock                 8000                       # Clock period in ticks
system.cpu.committedInsts                   100000000                       # Number of instructions committed
system.cpu.committedOps                     125794192                       # Number of ops (including micro ops) committed
system.cpu.dcache.ReadReq_accesses::.cpu.data     47308635                       # number of ReadReq accesses(hits+misses)
system.cpu.dcache.ReadReq_accesses::total     47308635                       # number of ReadReq accesses(hits+misses)
system.cpu.dcache.ReadReq_avg_miss_latency::.cpu.data 77462.055972                       # average ReadReq miss latency
system.cpu.dcache.ReadReq_avg_miss_latency::total 77462.055972                       # average ReadReq miss latency
system.cpu.dcache.ReadReq_avg_mshr_miss_latency::.cpu.data 76462.055972                       # average ReadReq mshr miss latency
system.cpu.dcache.ReadReq_avg_mshr_miss_latency::total 76462.055972                       # average ReadReq mshr miss latency
system.cpu.dcache.ReadReq_hits::.cpu.data     46215235                       # number of ReadReq hits
system.cpu.dcache.ReadReq_hits::total        46215235                       # number of ReadReq hits
system.cpu.dcache.ReadReq_miss_latency::.cpu.data  84697012000                       # number of ReadReq miss cycles
system.cpu.dcache.ReadReq_miss_latency::total  84697012000                       # number of ReadReq miss cycles
system.cpu.dcache.ReadReq_miss_rate::.cpu.data     0.023112                       # miss rate for ReadReq accesses
system.cpu.dcache.ReadReq_miss_rate::total     0.023112                       # miss rate for ReadReq accesses
system.cpu.dcache.ReadReq_misses::.cpu.data      1093400                       # number of ReadReq misses
system.cpu.dcache.ReadReq_misses::total       1093400                       # number of ReadReq misses
system.cpu.dcache.ReadReq_mshr_miss_latency::.cpu.data  83603612000                       # number of ReadReq MSHR miss cycles
system.cpu.dcache.ReadReq_mshr_miss_latency::total  83603612000                       # number of ReadReq MSHR miss cycles
system.cpu.dcache.ReadReq_mshr_miss_rate::.cpu.data     0.023112                       # mshr miss rate for ReadReq accesses
system.cpu.dcache.ReadReq_mshr_miss_rate::total     0.023112                       # mshr miss rate for ReadReq accesses
system.cpu.dcache.ReadReq_mshr_misses::.cpu.data      1093400                       # number of ReadReq MSHR misses
system.cpu.dcache.ReadReq_mshr_misses::total      1093400                       # number of ReadReq MSHR misses
system.cpu.dcache.SoftPFReq_accesses::.cpu.data        65536                       # number of SoftPFReq accesses(hits+misses)
system.cpu.dcache.SoftPFReq_accesses::total        65536                       # number of SoftPFReq accesses(hits+misses)
system.cpu.dcache.SoftPFReq_avg_mshr_miss_latency::.cpu.data 92875.021439                       # average SoftPFReq mshr miss latency
system.cpu.dcache.SoftPFReq_avg_mshr_miss_latency::total 92875.021439                       # average SoftPFReq mshr miss latency
system.cpu.dcache.SoftPFReq_miss_rate::.cpu.data            1                       # miss rate for SoftPFReq accesses
system.cpu.dcache.SoftPFReq_miss_rate::total            1                       # miss rate for SoftPFReq accesses
system.cpu.dcache.SoftPFReq_misses::.cpu.data        65536                       # number of SoftPFReq misses
system.cpu.dcache.SoftPFReq_misses::total        65536                       # number of SoftPFReq misses
system.cpu.dcache.SoftPFReq_mshr_miss_latency::.cpu.data   6086657405                       # number of SoftPFReq MSHR miss cycles
system.cpu.dcache.SoftPFReq_mshr_miss_latency::total   6086657405                       # number of SoftPFReq MSHR miss cycles
system.cpu.dcache.SoftPFReq_mshr_miss_rate::.cpu.data            1                       # mshr miss rate for SoftPFReq accesses
system.cpu.dcache.SoftPFReq_mshr_miss_rate::total            1                       # mshr miss rate for SoftPFReq accesses
system.cpu.dcache.SoftPFReq_mshr_misses::.cpu.data        65536                       # number of SoftPFReq MSHR misses
system.cpu.dcache.SoftPFReq_mshr_misses::total        65536                       # number of SoftPFReq MSHR misses
system.cpu.dcache.WriteReq_accesses::.cpu.data     17644618                       # number of WriteReq accesses(hits+misses)
system.cpu.dcache.WriteReq_accesses::total     17644618                       # number of WriteReq accesses(hits+misses)
system.cpu.dcache.WriteReq_avg_miss_latency::.cpu.data 86778.856683                       # average WriteReq miss latency
system.cpu.dcache.WriteReq_avg_miss_latency::total 86778.856683                       # average WriteReq miss latency
system.cpu.dcache.WriteReq_avg_mshr_miss_latency::.cpu.data 85778.856683                       # average WriteReq mshr miss latency
system.cpu.dcache.WriteReq_avg_mshr_miss_latency::total 85778.856683                       # average WriteReq mshr miss latency
system.cpu.dcache.WriteReq_hits::.cpu.data     16416315                       # number of WriteReq hits
system.cpu.dcache.WriteReq_hits::total       16416315                       # number of WriteReq hits
system.cpu.dcache.WriteReq_miss_latency::.cpu.data 106590730000                       # number of WriteReq miss cycles
system.cpu.dcache.WriteReq_miss_latency::total 106590730000                       # number of WriteReq miss cycles
system.cpu.dcache.WriteReq_miss_rate::.cpu.data     0.069613                       # miss rate for WriteReq accesses
system.cpu.dcache.WriteReq_miss_rate::total     0.069613                       # miss rate for WriteReq accesses
system.cpu.dcache.WriteReq_misses::.cpu.data      1228303                       # number of WriteReq misses
system.cpu.dcache.WriteReq_misses::total      1228303                       # number of WriteReq misses
system.cpu.dcache.WriteReq_mshr_miss_latency::.cpu.data 105362427000                       # number of WriteReq MSHR miss cycles
system.cpu.dcache.WriteReq_mshr_miss_latency::total 105362427000                       # number of WriteReq MSHR miss cycles
system.cpu.dcache.WriteReq_mshr_miss_rate::.cpu.data     0.069613                       # mshr miss rate for WriteReq accesses
system.cpu.dcache.WriteReq_mshr_miss_rate::total     0.069613                       # mshr miss rate for WriteReq accesses
system.cpu.dcache.WriteReq_mshr_misses::.cpu.data      1228303                       # number of WriteReq MSHR misses
system.cpu.dcache.WriteReq_mshr_misses::total      1228303                       # number of WriteReq MSHR misses
system.cpu.dcache.avg_blocked_cycles::no_mshrs    70.106821                       # average number of cycles each access was blocked
system.cpu.dcache.avg_blocked_cycles::no_targets          nan                       # average number of cycles each access was blocked
system.cpu.dcache.blocked::no_mshrs             20539                       # number of cycles access was blocked
system.cpu.dcache.blocked::no_targets               0                       # number of cycles access was blocked
system.cpu.dcache.blocked_cycles::no_mshrs      1439924                       # number of cycles access was blocked
system.cpu.dcache.blocked_cycles::no_targets            0                       # number of cycles access was blocked
system.cpu.dcache.demand_accesses::.cpu.data     64953253                       # number of demand (read+write) accesses
system.cpu.dcache.demand_accesses::total     64953253                       # number of demand (read+write) accesses
system.cpu.dcache.demand_avg_miss_latency::.cpu.data 82391.133577                       # average overall miss latency
system.cpu.dcache.demand_avg_miss_latency::total 82391.133577                       # average overall miss latency
system.cpu.dcache.demand_avg_mshr_miss_latency::.cpu.data 81391.133577                       # average overall mshr miss latency
system.cpu.dcache.demand_avg_mshr_miss_latency::total 81391.133577                       # average overall mshr miss latency
system.cpu.dcache.demand_hits::.cpu.data     62631550                       # number of demand (read+write) hits
system.cpu.dcache.demand_hits::total         62631550                       # number of demand (read+write) hits
system.cpu.dcache.demand_miss_latency::.cpu.data 191287742000                       # number of demand (read+write) miss cycles
system.cpu.dcache.demand_miss_latency::total 191287742000                       # number of demand (read+write) miss cycles
system.cpu.dcache.demand_miss_rate::.cpu.data     0.035744                       # miss rate for demand accesses
system.cpu.dcache.demand_miss_rate::total     0.035744                       # miss rate for demand accesses
system.cpu.dcache.demand_misses::.cpu.data      2321703                       # number of demand (read+write) misses
system.cpu.dcache.demand_misses::total        2321703                       # number of demand (read+write) misses
system.cpu.dcache.demand_mshr_miss_latency::.cpu.data 188966039000                       # number of demand (read+write) MSHR miss cycles
system.cpu.dcache.demand_mshr_miss_latency::total 188966039000                       # number of demand (read+write) MSHR miss cycles
system.cpu.dcache.demand_mshr_miss_rate::.cpu.data     0.035744                       # mshr miss rate for demand accesses
system.cpu.dcache.demand_mshr_miss_rate::total     0.035744                       # mshr miss rate for demand accesses
system.cpu.dcache.demand_mshr_misses::.cpu.data      2321703                       # number of demand (read+write) MSHR misses
system.cpu.dcache.demand_mshr_misses::total      2321703                       # number of demand (read+write) MSHR misses
system.cpu.dcache.overall_accesses::.cpu.data     65018789                       # number of overall (read+write) accesses
system.cpu.dcache.overall_accesses::total     65018789                       # number of overall (read+write) accesses
system.cpu.dcache.overall_avg_miss_latency::.cpu.data 80129.279892                       # average overall miss latency
system.cpu.dcache.overall_avg_miss_latency::total 80129.279892                       # average overall miss latency
system.cpu.dcache.overall_avg_mshr_miss_latency::.cpu.data 81706.396555                       # average overall mshr miss latency
system.cpu.dcache.overall_avg_mshr_miss_latency::total 81706.396555                       # average overall mshr miss latency
system.cpu.dcache.overall_hits::.cpu.data     62631550                       # number of overall hits
system.cpu.dcache.overall_hits::total        62631550                       # number of overall hits
system.cpu.dcache.overall_miss_latency::.cpu.data 191287742000                       # number of overall miss cycles
system.cpu.dcache.overall_miss_latency::total 191287742000                       # number of overall miss cycles
system.cpu.dcache.overall_miss_rate::.cpu.data     0.036716                       # miss rate for overall accesses
system.cpu.dcache.overall_miss_rate::total     0.036716                       # miss rate for overall accesses
system.cpu.dcache.overall_misses::.cpu.data      2387239                       # number of overall misses
system.cpu.dcache.overall_misses::total       2387239                       # number of overall misses
system.cpu.dcache.overall_mshr_miss_latency::.cpu.data 195052696405                       # number of overall MSHR miss cycles
system.cpu.dcache.overall_mshr_miss_latency::total 195052696405                       # number of overall MSHR miss cycles
system.cpu.dcache.overall_mshr_miss_rate::.cpu.data     0.036716                       # mshr miss rate for overall accesses
system.cpu.dcache.overall_mshr_miss_rate::total     0.036716                       # mshr miss rate for overall accesses
system.cpu.dcache.overall_mshr_misses::.cpu.data      2387239                       # number of overall MSHR misses
system.cpu.dcache.overall_mshr_misses::total      2387239                       # number of overall MSHR misses
system.cpu.dcache.pwrStateResidencyTicks::UNDEFINED 390431306500                       # Cumulative time (in ticks) in various power states
system.cpu.dcache.replacements                2385191                       # number of replacements
system.cpu.dcache.tags.age_task_id_blocks_1024::0           47                       # Occupied blocks per task id
system.cpu.dcache.tags.age_task_id_blocks_1024::1          329                       # Occupied blocks per task id
system.cpu.dcache.tags.age_task_id_blocks_1024::2         1435                       # Occupied blocks per task id
system.cpu.dcache.tags.age_task_id_blocks_1024::3          222                       # Occupied blocks per task id
system.cpu.dcache.tags.age_task_id_blocks_1024::4           15                       # Occupied blocks per task id
system.cpu.dcache.tags.avg_refs             27.235978                       # Average number of references to valid blocks.
system.cpu.dcache.tags.data_accesses        522537551                       # Number of data accesses
system.cpu.dcache.tags.occ_blocks::.cpu.data  1942.532074                       # Average occupied blocks per requestor
system.cpu.dcache.tags.occ_percent::.cpu.data     0.948502                       # Average percentage of cache occupancy
system.cpu.dcache.tags.occ_percent::total     0.948502                       # Average percentage of cache occupancy
system.cpu.dcache.tags.occ_task_id_blocks::1024         2048                       # Occupied blocks per task id
system.cpu.dcache.tags.occ_task_id_percent::1024            1                       # Percentage of cache occupancy per task id
system.cpu.dcache.tags.pwrStateResidencyTicks::UNDEFINED 390431306500                       # Cumulative time (in ticks) in various power states
system.cpu.dcache.tags.sampled_refs           2387239                       # Sample count of references to valid blocks.
system.cpu.dcache.tags.tag_accesses         522537551                       # Number of tag accesses
system.cpu.dcache.tags.tagsinuse          1942.532074                       # Cycle average of tags in use
system.cpu.dcache.tags.total_refs            65018789                       # Total number of references to valid blocks.
system.cpu.dcache.tags.warmup_cycle            195500                       # Cycle when the warmup percentage was hit.
system.cpu.dcache.writebacks::.writebacks      1375283                       # number of writebacks
system.cpu.dcache.writebacks::total           1375283                       # number of writebacks
system.cpu.dtb.pwrStateResidencyTicks::UNDEFINED 390431306500                       # Cumulative time (in ticks) in various power states
system.cpu.dtb.rdAccesses                    47374171                       # TLB accesses on read requests
system.cpu.dtb.rdMisses                        154481                       # TLB misses on read requests
system.cpu.dtb.walker.pwrStateResidencyTicks::UNDEFINED 390431306500                       # Cumulative time (in ticks) in various power states
system.cpu.dtb.wrAccesses                    17644618                       # TLB accesses on write requests
system.cpu.dtb.wrMisses                        392711                       # TLB misses on write requests
system.cpu.dtb_walker_cache.avg_blocked_cycles::no_mshrs          nan                       # average number of cycles each access was blocked
system.cpu.dtb_walker_cache.avg_blocked_cycles::no_targets          nan                       # average number of cycles each access was blocked
system.cpu.dtb_walker_cache.blocked::no_mshrs            0                       # number of cycles access was blocked
system.cpu.dtb_walker_cache.blocked::no_targets            0                       # number of cycles access was blocked
system.cpu.dtb_walker_cache.blocked_cycles::no_mshrs            0                       # number of cycles access was blocked
system.cpu.dtb_walker_cache.blocked_cycles::no_targets            0                       # number of cycles access was blocked
system.cpu.dtb_walker_cache.pwrStateResidencyTicks::UNDEFINED 390431306500                       # Cumulative time (in ticks) in various power states
system.cpu.dtb_walker_cache.replacements            0                       # number of replacements
system.cpu.dtb_walker_cache.tags.avg_refs          nan                       # Average number of references to valid blocks.
system.cpu.dtb_walker_cache.tags.data_accesses            0                       # Number of data accesses
system.cpu.dtb_walker_cache.tags.pwrStateResidencyTicks::UNDEFINED 390431306500                       # Cumulative time (in ticks) in various power states
system.cpu.dtb_walker_cache.tags.sampled_refs            0                       # Sample count of references to valid blocks.
system.cpu.dtb_walker_cache.tags.tag_accesses            0                       # Number of tag accesses
system.cpu.dtb_walker_cache.tags.tagsinuse            0                       # Cycle average of tags in use
system.cpu.dtb_walker_cache.tags.total_refs            0                       # Total number of references to valid blocks.
system.cpu.dtb_walker_cache.tags.warmup_cycle            0                       # Cycle when the warmup percentage was hit.
system.cpu.icache.ReadReq_accesses::.cpu.inst    135711381                       # number of ReadReq accesses(hits+misses)
system.cpu.icache.ReadReq_accesses::total    135711381                       # number of ReadReq accesses(hits+misses)
system.cpu.icache.ReadReq_avg_miss_latency::.cpu.inst 87767.552182                       # average ReadReq miss latency
system.cpu.icache.ReadReq_avg_miss_latency::total 87767.552182                       # average ReadReq miss latency
system.cpu.icache.ReadReq_avg_mshr_miss_latency::.cpu.inst 86767.552182                       # average ReadReq mshr miss latency
system.cpu.icache.ReadReq_avg_mshr_miss_latency::total 86767.552182                       # average ReadReq mshr miss latency
system.cpu.icache.ReadReq_hits::.cpu.inst    135710854                       # number of ReadReq hits
system.cpu.icache.ReadReq_hits::total       135710854                       # number of ReadReq hits
system.cpu.icache.ReadReq_miss_latency::.cpu.inst     46253500                       # number of ReadReq miss cycles
system.cpu.icache.ReadReq_miss_latency::total     46253500                       # number of ReadReq miss cycles
system.cpu.icache.ReadReq_miss_rate::.cpu.inst     0.000004                       # miss rate for ReadReq accesses
system.cpu.icache.ReadReq_miss_rate::total     0.000004                       # miss rate for ReadReq accesses
system.cpu.icache.ReadReq_misses::.cpu.inst          527                       # number of ReadReq misses
system.cpu.icache.ReadReq_misses::total           527                       # number of ReadReq misses
system.cpu.icache.ReadReq_mshr_miss_latency::.cpu.inst     45726500                       # number of ReadReq MSHR miss cycles
system.cpu.icache.ReadReq_mshr_miss_latency::total     45726500                       # number of ReadReq MSHR miss cycles
system.cpu.icache.ReadReq_mshr_miss_rate::.cpu.inst     0.000004                       # mshr miss rate for ReadReq accesses
system.cpu.icache.ReadReq_mshr_miss_rate::total     0.000004                       # mshr miss rate for ReadReq accesses
system.cpu.icache.ReadReq_mshr_misses::.cpu.inst          527                       # number of ReadReq MSHR misses
system.cpu.icache.ReadReq_mshr_misses::total          527                       # number of ReadReq MSHR misses
system.cpu.icache.avg_blocked_cycles::no_mshrs          nan                       # average number of cycles each access was blocked
system.cpu.icache.avg_blocked_cycles::no_targets          nan                       # average number of cycles each access was blocked
system.cpu.icache.blocked::no_mshrs                 0                       # number of cycles access was blocked
system.cpu.icache.blocked::no_targets               0                       # number of cycles access was blocked
system.cpu.icache.blocked_cycles::no_mshrs            0                       # number of cycles access was blocked
system.cpu.icache.blocked_cycles::no_targets            0                       # number of cycles access was blocked
system.cpu.icache.demand_accesses::.cpu.inst    135711381                       # number of demand (read+write) accesses
system.cpu.icache.demand_accesses::total    135711381                       # number of demand (read+write) accesses
system.cpu.icache.demand_avg_miss_latency::.cpu.inst 87767.552182                       # average overall miss latency
system.cpu.icache.demand_avg_miss_latency::total 87767.552182                       # average overall miss latency
system.cpu.icache.demand_avg_mshr_miss_latency::.cpu.inst 86767.552182                       # average overall mshr miss latency
system.cpu.icache.demand_avg_mshr_miss_latency::total 86767.552182                       # average overall mshr miss latency
system.cpu.icache.demand_hits::.cpu.inst    135710854                       # number of demand (read+write) hits
system.cpu.icache.demand_hits::total        135710854                       # number of demand (read+write) hits
system.cpu.icache.demand_miss_latency::.cpu.inst     46253500                       # number of demand (read+write) miss cycles
system.cpu.icache.demand_miss_latency::total     46253500                       # number of demand (read+write) miss cycles
system.cpu.icache.demand_miss_rate::.cpu.inst     0.000004                       # miss rate for demand accesses
system.cpu.icache.demand_miss_rate::total     0.000004                       # miss rate for demand accesses
system.cpu.icache.demand_misses::.cpu.inst          527                       # number of demand (read+write) misses
system.cpu.icache.demand_misses::total            527                       # number of demand (read+write) misses
system.cpu.icache.demand_mshr_miss_latency::.cpu.inst     45726500                       # number of demand (read+write) MSHR miss cycles
system.cpu.icache.demand_mshr_miss_latency::total     45726500                       # number of demand (read+write) MSHR miss cycles
system.cpu.icache.demand_mshr_miss_rate::.cpu.inst     0.000004                       # mshr miss rate for demand accesses
system.cpu.icache.demand_mshr_miss_rate::total     0.000004                       # mshr miss rate for demand accesses
system.cpu.icache.demand_mshr_misses::.cpu.inst          527                       # number of demand (read+write) MSHR misses
system.cpu.icache.demand_mshr_misses::total          527                       # number of demand (read+write) MSHR misses
system.cpu.icache.overall_accesses::.cpu.inst    135711381                       # number of overall (read+write) accesses
system.cpu.icache.overall_accesses::total    135711381                       # number of overall (read+write) accesses
system.cpu.icache.overall_avg_miss_latency::.cpu.inst 87767.552182                       # average overall miss latency
system.cpu.icache.overall_avg_miss_latency::total 87767.552182                       # average overall miss latency
system.cpu.icache.overall_avg_mshr_miss_latency::.cpu.inst 86767.552182                       # average overall mshr miss latency
system.cpu.icache.overall_avg_mshr_miss_latency::total 86767.552182                       # average overall mshr miss latency
system.cpu.icache.overall_hits::.cpu.inst    135710854                       # number of overall hits
system.cpu.icache.overall_hits::total       135710854                       # number of overall hits
system.cpu.icache.overall_miss_latency::.cpu.inst     46253500                       # number of overall miss cycles
system.cpu.icache.overall_miss_latency::total     46253500                       # number of overall miss cycles
system.cpu.icache.overall_miss_rate::.cpu.inst     0.000004                       # miss rate for overall accesses
system.cpu.icache.overall_miss_rate::total     0.000004                       # miss rate for overall accesses
system.cpu.icache.overall_misses::.cpu.inst          527                       # number of overall misses
system.cpu.icache.overall_misses::total           527                       # number of overall misses
system.cpu.icache.overall_mshr_miss_latency::.cpu.inst     45726500                       # number of overall MSHR miss cycles
system.cpu.icache.overall_mshr_miss_latency::total     45726500                       # number of overall MSHR miss cycles
system.cpu.icache.overall_mshr_miss_rate::.cpu.inst     0.000004                       # mshr miss rate for overall accesses
system.cpu.icache.overall_mshr_miss_rate::total     0.000004                       # mshr miss rate for overall accesses
system.cpu.icache.overall_mshr_misses::.cpu.inst          527                       # number of overall MSHR misses
system.cpu.icache.overall_mshr_misses::total          527                       # number of overall MSHR misses
system.cpu.icache.pwrStateResidencyTicks::UNDEFINED 390431306500                       # Cumulative time (in ticks) in various power states
system.cpu.icache.replacements                      6                       # number of replacements
system.cpu.icache.tags.age_task_id_blocks_1024::4          521                       # Occupied blocks per task id
system.cpu.icache.tags.avg_refs          257516.851992                       # Average number of references to valid blocks.
system.cpu.icache.tags.data_accesses        271423289                       # Number of data accesses
system.cpu.icache.tags.occ_blocks::.cpu.inst   426.461939                       # Average occupied blocks per requestor
system.cpu.icache.tags.occ_percent::.cpu.inst     0.208233                       # Average percentage of cache occupancy
system.cpu.icache.tags.occ_percent::total     0.208233                       # Average percentage of cache occupancy
system.cpu.icache.tags.occ_task_id_blocks::1024          521                       # Occupied blocks per task id
system.cpu.icache.tags.occ_task_id_percent::1024     0.254395                       # Percentage of cache occupancy per task id
system.cpu.icache.tags.pwrStateResidencyTicks::UNDEFINED 390431306500                       # Cumulative time (in ticks) in various power states
system.cpu.icache.tags.sampled_refs               527                       # Sample count of references to valid blocks.
system.cpu.icache.tags.tag_accesses         271423289                       # Number of tag accesses
system.cpu.icache.tags.tagsinuse           426.461939                       # Cycle average of tags in use
system.cpu.icache.tags.total_refs           135711381                       # Total number of references to valid blocks.
system.cpu.icache.tags.warmup_cycle             87500                       # Cycle when the warmup percentage was hit.
system.cpu.icache.writebacks::.writebacks            6                       # number of writebacks
system.cpu.icache.writebacks::total                 6                       # number of writebacks
system.cpu.idle_fraction                            0                       # Percentage of idle cycles
system.cpu.interrupts.pwrStateResidencyTicks::UNDEFINED 390431306500                       # Cumulative time (in ticks) in various power states
system.cpu.itb.pwrStateResidencyTicks::UNDEFINED 390431306500                       # Cumulative time (in ticks) in various power states
system.cpu.itb.rdAccesses                           0                       # TLB accesses on read requests
system.cpu.itb.rdMisses                             0                       # TLB misses on read requests
system.cpu.itb.walker.pwrStateResidencyTicks::UNDEFINED 390431306500                       # Cumulative time (in ticks) in various power states
system.cpu.itb.wrAccesses                   135711381                       # TLB accesses on write requests
system.cpu.itb.wrMisses                            47                       # TLB misses on write requests
system.cpu.itb_walker_cache.avg_blocked_cycles::no_mshrs          nan                       # average number of cycles each access was blocked
system.cpu.itb_walker_cache.avg_blocked_cycles::no_targets          nan                       # average number of cycles each access was blocked
system.cpu.itb_walker_cache.blocked::no_mshrs            0                       # number of cycles access was blocked
system.cpu.itb_walker_cache.blocked::no_targets            0                       # number of cycles access was blocked
system.cpu.itb_walker_cache.blocked_cycles::no_mshrs            0                       # number of cycles access was blocked
system.cpu.itb_walker_cache.blocked_cycles::no_targets            0                       # number of cycles access was blocked
system.cpu.itb_walker_cache.pwrStateResidencyTicks::UNDEFINED 390431306500                       # Cumulative time (in ticks) in various power states
system.cpu.itb_walker_cache.replacements            0                       # number of replacements
system.cpu.itb_walker_cache.tags.avg_refs          nan                       # Average number of references to valid blocks.
system.cpu.itb_walker_cache.tags.data_accesses            0                       # Number of data accesses
system.cpu.itb_walker_cache.tags.pwrStateResidencyTicks::UNDEFINED 390431306500                       # Cumulative time (in ticks) in various power states
system.cpu.itb_walker_cache.tags.sampled_refs            0                       # Sample count of references to valid blocks.
system.cpu.itb_walker_cache.tags.tag_accesses            0                       # Number of tag accesses
system.cpu.itb_walker_cache.tags.tagsinuse            0                       # Cycle average of tags in use
system.cpu.itb_walker_cache.tags.total_refs            0                       # Total number of references to valid blocks.
system.cpu.itb_walker_cache.tags.warmup_cycle            0                       # Cycle when the warmup percentage was hit.
system.cpu.not_idle_fraction                        1                       # Percentage of non-idle cycles
system.cpu.numCycles                        780862613                       # number of cpu cycles simulated
system.cpu.numWorkItemsCompleted                    0                       # number of work items this cpu completed
system.cpu.numWorkItemsStarted                      0                       # number of work items this cpu started
system.cpu.num_busy_cycles                  780862613                       # Number of busy cycles
system.cpu.num_cc_register_reads             26576152                       # number of times the CC registers were read
system.cpu.num_cc_register_writes            36968375                       # number of times the CC registers were written
system.cpu.num_conditional_control_insts      3953451                       # number of instructions that are conditional controls
system.cpu.num_fp_alu_accesses                    835                       # Number of float alu accesses
system.cpu.num_fp_insts                           835                       # number of float instructions
system.cpu.num_fp_register_reads                 1311                       # number of times the floating registers were read
system.cpu.num_fp_register_writes                 577                       # number of times the floating registers were written
system.cpu.num_func_calls                       69322                       # number of times a function call or return occured
system.cpu.num_idle_cycles                          0                       # Number of idle cycles
system.cpu.num_int_alu_accesses             124833182                       # Number of integer alu accesses
system.cpu.num_int_insts                    124833182                       # number of integer instructions
system.cpu.num_int_register_reads           314540083                       # number of times the integer registers were read
system.cpu.num_int_register_writes          102332169                       # number of times the integer registers were written
system.cpu.num_load_insts                    47374160                       # Number of load instructions
system.cpu.num_mem_refs                      65018778                       # number of memory refs
system.cpu.num_store_insts                   17644618                       # Number of store instructions
system.cpu.num_vec_alu_accesses                     0                       # Number of vector alu accesses
system.cpu.num_vec_insts                            0                       # number of vector instructions
system.cpu.num_vec_register_reads                   0                       # number of times the vector registers were read
system.cpu.num_vec_register_writes                  0                       # number of times the vector registers were written
system.cpu.op_class::No_OpClass                960292      0.76%      0.76% # Class of executed instruction
system.cpu.op_class::IntAlu                  59683576     47.45%     48.21% # Class of executed instruction
system.cpu.op_class::IntMult                   130946      0.10%     48.31% # Class of executed instruction
system.cpu.op_class::IntDiv                        70      0.00%     48.31% # Class of executed instruction
system.cpu.op_class::FloatAdd                      21      0.00%     48.31% # Class of executed instruction
system.cpu.op_class::FloatCmp                       0      0.00%     48.31% # Class of executed instruction
system.cpu.op_class::FloatCvt                       0      0.00%     48.31% # Class of executed instruction
system.cpu.op_class::FloatMult                      0      0.00%     48.31% # Class of executed instruction
system.cpu.op_class::FloatMultAcc                   0      0.00%     48.31% # Class of executed instruction
system.cpu.op_class::FloatDiv                       0      0.00%     48.31% # Class of executed instruction
system.cpu.op_class::FloatMisc                      0      0.00%     48.31% # Class of executed instruction
system.cpu.op_class::FloatSqrt                      0      0.00%     48.31% # Class of executed instruction
system.cpu.op_class::SimdAdd                        0      0.00%     48.31% # Class of executed instruction
system.cpu.op_class::SimdAddAcc                     0      0.00%     48.31% # Class of executed instruction
system.cpu.op_class::SimdAlu                      142      0.00%     48.31% # Class of executed instruction
system.cpu.op_class::SimdCmp                        0      0.00%     48.31% # Class of executed instruction
system.cpu.op_class::SimdCvt                      126      0.00%     48.31% # Class of executed instruction
system.cpu.op_class::SimdMisc                     241      0.00%     48.31% # Class of executed instruction
system.cpu.op_class::SimdMult                       0      0.00%     48.31% # Class of executed instruction
system.cpu.op_class::SimdMultAcc                    0      0.00%     48.31% # Class of executed instruction
system.cpu.op_class::SimdShift                      0      0.00%     48.31% # Class of executed instruction
system.cpu.op_class::SimdShiftAcc                   0      0.00%     48.31% # Class of executed instruction
system.cpu.op_class::SimdDiv                        0      0.00%     48.31% # Class of executed instruction
system.cpu.op_class::SimdSqrt                       0      0.00%     48.31% # Class of executed instruction
system.cpu.op_class::SimdFloatAdd                   0      0.00%     48.31% # Class of executed instruction
system.cpu.op_class::SimdFloatAlu                   0      0.00%     48.31% # Class of executed instruction
system.cpu.op_class::SimdFloatCmp                   0      0.00%     48.31% # Class of executed instruction
system.cpu.op_class::SimdFloatCvt                   0      0.00%     48.31% # Class of executed instruction
system.cpu.op_class::SimdFloatDiv                   0      0.00%     48.31% # Class of executed instruction
system.cpu.op_class::SimdFloatMisc                  0      0.00%     48.31% # Class of executed instruction
system.cpu.op_class::SimdFloatMult                  0      0.00%     48.31% # Class of executed instruction
system.cpu.op_class::SimdFloatMultAcc               0      0.00%     48.31% # Class of executed instruction
system.cpu.op_class::SimdFloatSqrt                  0      0.00%     48.31% # Class of executed instruction
system.cpu.op_class::SimdReduceAdd                  0      0.00%     48.31% # Class of executed instruction
system.cpu.op_class::SimdReduceAlu                  0      0.00%     48.31% # Class of executed instruction
system.cpu.op_class::SimdReduceCmp                  0      0.00%     48.31% # Class of executed instruction
system.cpu.op_class::SimdFloatReduceAdd             0      0.00%     48.31% # Class of executed instruction
system.cpu.op_class::SimdFloatReduceCmp             0      0.00%     48.31% # Class of executed instruction
system.cpu.op_class::SimdAes                        0      0.00%     48.31% # Class of executed instruction
system.cpu.op_class::SimdAesMix                     0      0.00%     48.31% # Class of executed instruction
system.cpu.op_class::SimdSha1Hash                   0      0.00%     48.31% # Class of executed instruction
system.cpu.op_class::SimdSha1Hash2                  0      0.00%     48.31% # Class of executed instruction
system.cpu.op_class::SimdSha256Hash                 0      0.00%     48.31% # Class of executed instruction
system.cpu.op_class::SimdSha256Hash2                0      0.00%     48.31% # Class of executed instruction
system.cpu.op_class::SimdShaSigma2                  0      0.00%     48.31% # Class of executed instruction
system.cpu.op_class::SimdShaSigma3                  0      0.00%     48.31% # Class of executed instruction
system.cpu.op_class::SimdPredAlu                    0      0.00%     48.31% # Class of executed instruction
system.cpu.op_class::MemRead                 47374078     37.66%     85.97% # Class of executed instruction
system.cpu.op_class::MemWrite                17644454     14.03%    100.00% # Class of executed instruction
system.cpu.op_class::FloatMemRead                  82      0.00%    100.00% # Class of executed instruction
system.cpu.op_class::FloatMemWrite                164      0.00%    100.00% # Class of executed instruction
system.cpu.op_class::IprAccess                      0      0.00%    100.00% # Class of executed instruction
system.cpu.op_class::InstPrefetch                   0      0.00%    100.00% # Class of executed instruction
system.cpu.op_class::total                  125794192                       # Class of executed instruction
system.cpu.pwrStateResidencyTicks::ON    390431306500                       # Cumulative time (in ticks) in various power states
system.cpu.workload.numSyscalls                    89                       # Number of system calls
system.cpu_clk_domain.clock                       500                       # Clock period in ticks
system.cpu_voltage_domain.voltage                   1                       # Voltage in Volts
system.l2.CleanEvict_mshr_miss_rate::.writebacks          inf                       # mshr miss rate for CleanEvict accesses
system.l2.CleanEvict_mshr_miss_rate::total          inf                       # mshr miss rate for CleanEvict accesses
system.l2.CleanEvict_mshr_misses::.writebacks        57572                       # number of CleanEvict MSHR misses
system.l2.CleanEvict_mshr_misses::total         57572                       # number of CleanEvict MSHR misses
system.l2.ReadCleanReq_accesses::.cpu.inst          527                       # number of ReadCleanReq accesses(hits+misses)
system.l2.ReadCleanReq_accesses::total            527                       # number of ReadCleanReq accesses(hits+misses)
system.l2.ReadCleanReq_avg_miss_latency::.cpu.inst 85407.794677                       # average ReadCleanReq miss latency
system.l2.ReadCleanReq_avg_miss_latency::total 85407.794677                       # average ReadCleanReq miss latency
system.l2.ReadCleanReq_avg_mshr_miss_latency::.cpu.inst 75407.794677                       # average ReadCleanReq mshr miss latency
system.l2.ReadCleanReq_avg_mshr_miss_latency::total 75407.794677                       # average ReadCleanReq mshr miss latency
system.l2.ReadCleanReq_hits::.cpu.inst              1                       # number of ReadCleanReq hits
system.l2.ReadCleanReq_hits::total                  1                       # number of ReadCleanReq hits
system.l2.ReadCleanReq_miss_latency::.cpu.inst     44924500                       # number of ReadCleanReq miss cycles
system.l2.ReadCleanReq_miss_latency::total     44924500                       # number of ReadCleanReq miss cycles
system.l2.ReadCleanReq_miss_rate::.cpu.inst     0.998102                       # miss rate for ReadCleanReq accesses
system.l2.ReadCleanReq_miss_rate::total      0.998102                       # miss rate for ReadCleanReq accesses
system.l2.ReadCleanReq_misses::.cpu.inst          526                       # number of ReadCleanReq misses
system.l2.ReadCleanReq_misses::total              526                       # number of ReadCleanReq misses
system.l2.ReadCleanReq_mshr_miss_latency::.cpu.inst     39664500                       # number of ReadCleanReq MSHR miss cycles
system.l2.ReadCleanReq_mshr_miss_latency::total     39664500                       # number of ReadCleanReq MSHR miss cycles
system.l2.ReadCleanReq_mshr_miss_rate::.cpu.inst     0.998102                       # mshr miss rate for ReadCleanReq accesses
system.l2.ReadCleanReq_mshr_miss_rate::total     0.998102                       # mshr miss rate for ReadCleanReq accesses
system.l2.ReadCleanReq_mshr_misses::.cpu.inst          526                       # number of ReadCleanReq MSHR misses
system.l2.ReadCleanReq_mshr_misses::total          526                       # number of ReadCleanReq MSHR misses
system.l2.ReadExReq_accesses::.cpu.data       1228303                       # number of ReadExReq accesses(hits+misses)
system.l2.ReadExReq_accesses::total           1228303                       # number of ReadExReq accesses(hits+misses)
system.l2.ReadExReq_avg_miss_latency::.cpu.data 88313.144631                       # average ReadExReq miss latency
system.l2.ReadExReq_avg_miss_latency::total 88313.144631                       # average ReadExReq miss latency
system.l2.ReadExReq_avg_mshr_miss_latency::.cpu.data 78313.144631                       # average ReadExReq mshr miss latency
system.l2.ReadExReq_avg_mshr_miss_latency::total 78313.144631                       # average ReadExReq mshr miss latency
system.l2.ReadExReq_hits::.cpu.data             63683                       # number of ReadExReq hits
system.l2.ReadExReq_hits::total                 63683                       # number of ReadExReq hits
system.l2.ReadExReq_miss_latency::.cpu.data 102851254500                       # number of ReadExReq miss cycles
system.l2.ReadExReq_miss_latency::total  102851254500                       # number of ReadExReq miss cycles
system.l2.ReadExReq_miss_rate::.cpu.data     0.948154                       # miss rate for ReadExReq accesses
system.l2.ReadExReq_miss_rate::total         0.948154                       # miss rate for ReadExReq accesses
system.l2.ReadExReq_misses::.cpu.data         1164620                       # number of ReadExReq misses
system.l2.ReadExReq_misses::total             1164620                       # number of ReadExReq misses
system.l2.ReadExReq_mshr_miss_latency::.cpu.data  91205054500                       # number of ReadExReq MSHR miss cycles
system.l2.ReadExReq_mshr_miss_latency::total  91205054500                       # number of ReadExReq MSHR miss cycles
system.l2.ReadExReq_mshr_miss_rate::.cpu.data     0.948154                       # mshr miss rate for ReadExReq accesses
system.l2.ReadExReq_mshr_miss_rate::total     0.948154                       # mshr miss rate for ReadExReq accesses
system.l2.ReadExReq_mshr_misses::.cpu.data      1164620                       # number of ReadExReq MSHR misses
system.l2.ReadExReq_mshr_misses::total        1164620                       # number of ReadExReq MSHR misses
system.l2.ReadSharedReq_accesses::.cpu.data      1158936                       # number of ReadSharedReq accesses(hits+misses)
system.l2.ReadSharedReq_accesses::total       1158936                       # number of ReadSharedReq accesses(hits+misses)
system.l2.ReadSharedReq_avg_miss_latency::.cpu.data 82207.447075                       # average ReadSharedReq miss latency
system.l2.ReadSharedReq_avg_miss_latency::total 82207.447075                       # average ReadSharedReq miss latency
system.l2.ReadSharedReq_avg_mshr_miss_latency::.cpu.data 72207.447075                       # average ReadSharedReq mshr miss latency
system.l2.ReadSharedReq_avg_mshr_miss_latency::total 72207.447075                       # average ReadSharedReq mshr miss latency
system.l2.ReadSharedReq_hits::.cpu.data        102105                       # number of ReadSharedReq hits
system.l2.ReadSharedReq_hits::total            102105                       # number of ReadSharedReq hits
system.l2.ReadSharedReq_miss_latency::.cpu.data  86879378500                       # number of ReadSharedReq miss cycles
system.l2.ReadSharedReq_miss_latency::total  86879378500                       # number of ReadSharedReq miss cycles
system.l2.ReadSharedReq_miss_rate::.cpu.data     0.911898                       # miss rate for ReadSharedReq accesses
system.l2.ReadSharedReq_miss_rate::total     0.911898                       # miss rate for ReadSharedReq accesses
system.l2.ReadSharedReq_misses::.cpu.data      1056831                       # number of ReadSharedReq misses
system.l2.ReadSharedReq_misses::total         1056831                       # number of ReadSharedReq misses
system.l2.ReadSharedReq_mshr_miss_latency::.cpu.data  76311068500                       # number of ReadSharedReq MSHR miss cycles
system.l2.ReadSharedReq_mshr_miss_latency::total  76311068500                       # number of ReadSharedReq MSHR miss cycles
system.l2.ReadSharedReq_mshr_miss_rate::.cpu.data     0.911898                       # mshr miss rate for ReadSharedReq accesses
system.l2.ReadSharedReq_mshr_miss_rate::total     0.911898                       # mshr miss rate for ReadSharedReq accesses
system.l2.ReadSharedReq_mshr_misses::.cpu.data      1056831                       # number of ReadSharedReq MSHR misses
system.l2.ReadSharedReq_mshr_misses::total      1056831                       # number of ReadSharedReq MSHR misses
system.l2.WritebackClean_accesses::.writebacks            6                       # number of WritebackClean accesses(hits+misses)
system.l2.WritebackClean_accesses::total            6                       # number of WritebackClean accesses(hits+misses)
system.l2.WritebackClean_hits::.writebacks            6                       # number of WritebackClean hits
system.l2.WritebackClean_hits::total                6                       # number of WritebackClean hits
system.l2.WritebackDirty_accesses::.writebacks      1375283                       # number of WritebackDirty accesses(hits+misses)
system.l2.WritebackDirty_accesses::total      1375283                       # number of WritebackDirty accesses(hits+misses)
system.l2.WritebackDirty_hits::.writebacks      1375283                       # number of WritebackDirty hits
system.l2.WritebackDirty_hits::total          1375283                       # number of WritebackDirty hits
system.l2.avg_blocked_cycles::no_mshrs            nan                       # average number of cycles each access was blocked
system.l2.avg_blocked_cycles::no_targets          nan                       # average number of cycles each access was blocked
system.l2.blocked::no_mshrs                         0                       # number of cycles access was blocked
system.l2.blocked::no_targets                       0                       # number of cycles access was blocked
system.l2.blocked_cycles::no_mshrs                  0                       # number of cycles access was blocked
system.l2.blocked_cycles::no_targets                0                       # number of cycles access was blocked
system.l2.demand_accesses::.cpu.inst              527                       # number of demand (read+write) accesses
system.l2.demand_accesses::.cpu.data          2387239                       # number of demand (read+write) accesses
system.l2.demand_accesses::total              2387766                       # number of demand (read+write) accesses
system.l2.demand_avg_miss_latency::.cpu.inst 85407.794677                       # average overall miss latency
system.l2.demand_avg_miss_latency::.cpu.data 85408.425844                       # average overall miss latency
system.l2.demand_avg_miss_latency::total 85408.425695                       # average overall miss latency
system.l2.demand_avg_mshr_miss_latency::.cpu.inst 75407.794677                       # average overall mshr miss latency
system.l2.demand_avg_mshr_miss_latency::.cpu.data 75408.425844                       # average overall mshr miss latency
system.l2.demand_avg_mshr_miss_latency::total 75408.425695                       # average overall mshr miss latency
system.l2.demand_hits::.cpu.inst                    1                       # number of demand (read+write) hits
system.l2.demand_hits::.cpu.data               165788                       # number of demand (read+write) hits
system.l2.demand_hits::total                   165789                       # number of demand (read+write) hits
system.l2.demand_miss_latency::.cpu.inst     44924500                       # number of demand (read+write) miss cycles
system.l2.demand_miss_latency::.cpu.data 189730633000                       # number of demand (read+write) miss cycles
system.l2.demand_miss_latency::total     189775557500                       # number of demand (read+write) miss cycles
system.l2.demand_miss_rate::.cpu.inst        0.998102                       # miss rate for demand accesses
system.l2.demand_miss_rate::.cpu.data        0.930552                       # miss rate for demand accesses
system.l2.demand_miss_rate::total            0.930567                       # miss rate for demand accesses
system.l2.demand_misses::.cpu.inst                526                       # number of demand (read+write) misses
system.l2.demand_misses::.cpu.data            2221451                       # number of demand (read+write) misses
system.l2.demand_misses::total                2221977                       # number of demand (read+write) misses
system.l2.demand_mshr_miss_latency::.cpu.inst     39664500                       # number of demand (read+write) MSHR miss cycles
system.l2.demand_mshr_miss_latency::.cpu.data 167516123000                       # number of demand (read+write) MSHR miss cycles
system.l2.demand_mshr_miss_latency::total 167555787500                       # number of demand (read+write) MSHR miss cycles
system.l2.demand_mshr_miss_rate::.cpu.inst     0.998102                       # mshr miss rate for demand accesses
system.l2.demand_mshr_miss_rate::.cpu.data     0.930552                       # mshr miss rate for demand accesses
system.l2.demand_mshr_miss_rate::total       0.930567                       # mshr miss rate for demand accesses
system.l2.demand_mshr_misses::.cpu.inst           526                       # number of demand (read+write) MSHR misses
system.l2.demand_mshr_misses::.cpu.data       2221451                       # number of demand (read+write) MSHR misses
system.l2.demand_mshr_misses::total           2221977                       # number of demand (read+write) MSHR misses
system.l2.overall_accesses::.cpu.inst             527                       # number of overall (read+write) accesses
system.l2.overall_accesses::.cpu.data         2387239                       # number of overall (read+write) accesses
system.l2.overall_accesses::total             2387766                       # number of overall (read+write) accesses
system.l2.overall_avg_miss_latency::.cpu.inst 85407.794677                       # average overall miss latency
system.l2.overall_avg_miss_latency::.cpu.data 85408.425844                       # average overall miss latency
system.l2.overall_avg_miss_latency::total 85408.425695                       # average overall miss latency
system.l2.overall_avg_mshr_miss_latency::.cpu.inst 75407.794677                       # average overall mshr miss latency
system.l2.overall_avg_mshr_miss_latency::.cpu.data 75408.425844                       # average overall mshr miss latency
system.l2.overall_avg_mshr_miss_latency::total 75408.425695                       # average overall mshr miss latency
system.l2.overall_hits::.cpu.inst                   1                       # number of overall hits
system.l2.overall_hits::.cpu.data              165788                       # number of overall hits
system.l2.overall_hits::total                  165789                       # number of overall hits
system.l2.overall_miss_latency::.cpu.inst     44924500                       # number of overall miss cycles
system.l2.overall_miss_latency::.cpu.data 189730633000                       # number of overall miss cycles
system.l2.overall_miss_latency::total    189775557500                       # number of overall miss cycles
system.l2.overall_miss_rate::.cpu.inst       0.998102                       # miss rate for overall accesses
system.l2.overall_miss_rate::.cpu.data       0.930552                       # miss rate for overall accesses
system.l2.overall_miss_rate::total           0.930567                       # miss rate for overall accesses
system.l2.overall_misses::.cpu.inst               526                       # number of overall misses
system.l2.overall_misses::.cpu.data           2221451                       # number of overall misses
system.l2.overall_misses::total               2221977                       # number of overall misses
system.l2.overall_mshr_miss_latency::.cpu.inst     39664500                       # number of overall MSHR miss cycles
system.l2.overall_mshr_miss_latency::.cpu.data 167516123000                       # number of overall MSHR miss cycles
system.l2.overall_mshr_miss_latency::total 167555787500                       # number of overall MSHR miss cycles
system.l2.overall_mshr_miss_rate::.cpu.inst     0.998102                       # mshr miss rate for overall accesses
system.l2.overall_mshr_miss_rate::.cpu.data     0.930552                       # mshr miss rate for overall accesses
system.l2.overall_mshr_miss_rate::total      0.930567                       # mshr miss rate for overall accesses
system.l2.overall_mshr_misses::.cpu.inst          526                       # number of overall MSHR misses
system.l2.overall_mshr_misses::.cpu.data      2221451                       # number of overall MSHR misses
system.l2.overall_mshr_misses::total          2221977                       # number of overall MSHR misses
system.l2.pwrStateResidencyTicks::UNDEFINED 390431306500                       # Cumulative time (in ticks) in various power states
system.l2.replacements                        2229057                       # number of replacements
system.l2.tags.age_task_id_blocks_1024::0           19                       # Occupied blocks per task id
system.l2.tags.age_task_id_blocks_1024::1          136                       # Occupied blocks per task id
system.l2.tags.age_task_id_blocks_1024::2         1196                       # Occupied blocks per task id
system.l2.tags.age_task_id_blocks_1024::3         7194                       # Occupied blocks per task id
system.l2.tags.age_task_id_blocks_1024::4         7839                       # Occupied blocks per task id
system.l2.tags.avg_refs                      2.099984                       # Average number of references to valid blocks.
system.l2.tags.data_accesses                  7018403                       # Number of data accesses
system.l2.tags.occ_blocks::.writebacks     248.087383                       # Average occupied blocks per requestor
system.l2.tags.occ_blocks::.cpu.inst        20.133661                       # Average occupied blocks per requestor
system.l2.tags.occ_blocks::.cpu.data     15212.796923                       # Average occupied blocks per requestor
system.l2.tags.occ_percent::.writebacks      0.015142                       # Average percentage of cache occupancy
system.l2.tags.occ_percent::.cpu.inst        0.001229                       # Average percentage of cache occupancy
system.l2.tags.occ_percent::.cpu.data        0.928515                       # Average percentage of cache occupancy
system.l2.tags.occ_percent::total            0.944886                       # Average percentage of cache occupancy
system.l2.tags.occ_task_id_blocks::1024         16384                       # Occupied blocks per task id
system.l2.tags.occ_task_id_percent::1024            1                       # Percentage of cache occupancy per task id
system.l2.tags.pwrStateResidencyTicks::UNDEFINED 390431306500                       # Cumulative time (in ticks) in various power states
system.l2.tags.sampled_refs                   2245441                       # Sample count of references to valid blocks.
system.l2.tags.tag_accesses                   7018403                       # Number of tag accesses
system.l2.tags.tagsinuse                 15481.017966                       # Cycle average of tags in use
system.l2.tags.total_refs                     4715390                       # Total number of references to valid blocks.
system.l2.tags.warmup_cycle                     77000                       # Cycle when the warmup percentage was hit.
system.l2.writebacks::.writebacks             1197449                       # number of writebacks
system.l2.writebacks::total                   1197449                       # number of writebacks
system.mem_ctrls.avgBusLat                    5000.00                       # Average bus latency per DRAM burst
system.mem_ctrls.avgGap                     114180.32                       # Average gap between requests
system.mem_ctrls.avgMemAccLat                34620.88                       # Average memory access latency per DRAM burst
system.mem_ctrls.avgPriority_.writebacks::samples   1197448.00                       # Average QoS priority value for accepted requests
system.mem_ctrls.avgPriority_.cpu.inst::samples       526.00                       # Average QoS priority value for accepted requests
system.mem_ctrls.avgPriority_.cpu.data::samples   2220905.00                       # Average QoS priority value for accepted requests
system.mem_ctrls.avgQLat                     15870.88                       # Average queueing delay per DRAM burst
system.mem_ctrls.avgRdBW                       364.14                       # Average DRAM read bandwidth in MiByte/s
system.mem_ctrls.avgRdBWSys                    364.23                       # Average system read bandwidth in MiByte/s
system.mem_ctrls.avgRdQLen                       1.01                       # Average read queue length when enqueuing
system.mem_ctrls.avgWrBW                       196.28                       # Average achieved write bandwidth in MiByte/s
system.mem_ctrls.avgWrBWSys                    196.29                       # Average system write bandwidth in MiByte/s
system.mem_ctrls.avgWrQLen                      24.03                       # Average write queue length when enqueuing
system.mem_ctrls.busUtil                         4.38                       # Data bus utilization in percentage
system.mem_ctrls.busUtilRead                     2.84                       # Data bus utilization in percentage for reads
system.mem_ctrls.busUtilWrite                    1.53                       # Data bus utilization in percentage for writes
system.mem_ctrls.bw_inst_read::.cpu.inst        86223                       # Instruction read bandwidth from this memory (bytes/s)
system.mem_ctrls.bw_inst_read::total            86223                       # Instruction read bandwidth from this memory (bytes/s)
system.mem_ctrls.bw_read::.cpu.inst             86223                       # Total read bandwidth from this memory (bytes/s)
system.mem_ctrls.bw_read::.cpu.data         364143094                       # Total read bandwidth from this memory (bytes/s)
system.mem_ctrls.bw_read::total             364229317                       # Total read bandwidth from this memory (bytes/s)
system.mem_ctrls.bw_total::.writebacks      196287374                       # Total bandwidth to/from this memory (bytes/s)
system.mem_ctrls.bw_total::.cpu.inst            86223                       # Total bandwidth to/from this memory (bytes/s)
system.mem_ctrls.bw_total::.cpu.data        364143094                       # Total bandwidth to/from this memory (bytes/s)
system.mem_ctrls.bw_total::total            560516691                       # Total bandwidth to/from this memory (bytes/s)
system.mem_ctrls.bw_write::.writebacks      196287374                       # Write bandwidth from this memory (bytes/s)
system.mem_ctrls.bw_write::total            196287374                       # Write bandwidth from this memory (bytes/s)
system.mem_ctrls.bytesPerActivate::samples       431285                       # Bytes accessed per row activation
system.mem_ctrls.bytesPerActivate::mean    507.334797                       # Bytes accessed per row activation
system.mem_ctrls.bytesPerActivate::gmean   309.754956                       # Bytes accessed per row activation
system.mem_ctrls.bytesPerActivate::stdev   395.428183                       # Bytes accessed per row activation
system.mem_ctrls.bytesPerActivate::0-127       119927     27.81%     27.81% # Bytes accessed per row activation
system.mem_ctrls.bytesPerActivate::128-255        36282      8.41%     36.22% # Bytes accessed per row activation
system.mem_ctrls.bytesPerActivate::256-383        35580      8.25%     44.47% # Bytes accessed per row activation
system.mem_ctrls.bytesPerActivate::384-511        19130      4.44%     48.90% # Bytes accessed per row activation
system.mem_ctrls.bytesPerActivate::512-639        61775     14.32%     63.23% # Bytes accessed per row activation
system.mem_ctrls.bytesPerActivate::640-767         9065      2.10%     65.33% # Bytes accessed per row activation
system.mem_ctrls.bytesPerActivate::768-895        13661      3.17%     68.50% # Bytes accessed per row activation
system.mem_ctrls.bytesPerActivate::896-1023         6122      1.42%     69.92% # Bytes accessed per row activation
system.mem_ctrls.bytesPerActivate::1024-1151       129743     30.08%    100.00% # Bytes accessed per row activation
system.mem_ctrls.bytesPerActivate::total       431285                       # Bytes accessed per row activation
system.mem_ctrls.bytesReadDRAM              142171584                       # Total number of bytes read from DRAM
system.mem_ctrls.bytesReadSys               142206528                       # Total read bytes from the system interface side
system.mem_ctrls.bytesReadWrQ                   34944                       # Total number of bytes read from write queue
system.mem_ctrls.bytesWritten                76634752                       # Total number of bytes written to DRAM
system.mem_ctrls.bytesWrittenSys             76636736                       # Total written bytes from the system interface side
system.mem_ctrls.bytes_inst_read::.cpu.inst        33664                       # Number of instructions bytes read from this memory
system.mem_ctrls.bytes_inst_read::total         33664                       # Number of instructions bytes read from this memory
system.mem_ctrls.bytes_read::.cpu.inst          33664                       # Number of bytes read from this memory
system.mem_ctrls.bytes_read::.cpu.data      142172864                       # Number of bytes read from this memory
system.mem_ctrls.bytes_read::total          142206528                       # Number of bytes read from this memory
system.mem_ctrls.bytes_written::.writebacks     76636736                       # Number of bytes written to this memory
system.mem_ctrls.bytes_written::total        76636736                       # Number of bytes written to this memory
system.mem_ctrls.masterReadAccesses::.cpu.inst          526                       # Per-master read serviced memory accesses
system.mem_ctrls.masterReadAccesses::.cpu.data      2221451                       # Per-master read serviced memory accesses
system.mem_ctrls.masterReadAvgLat::.cpu.inst     34586.98                       # Per-master read average memory access latency
system.mem_ctrls.masterReadAvgLat::.cpu.data     34612.38                       # Per-master read average memory access latency
system.mem_ctrls.masterReadBytes::.cpu.inst        33664                       # Per-master bytes read from memory
system.mem_ctrls.masterReadBytes::.cpu.data    142137920                       # Per-master bytes read from memory
system.mem_ctrls.masterReadRate::.cpu.inst 86222.593935355952                       # Per-master bytes read from memory rate (Bytes/sec)
system.mem_ctrls.masterReadRate::.cpu.data 364053593.125478506088                       # Per-master bytes read from memory rate (Bytes/sec)
system.mem_ctrls.masterReadTotalLat::.cpu.inst     18192750                       # Per-master read total memory access latency
system.mem_ctrls.masterReadTotalLat::.cpu.data  76889695687                       # Per-master read total memory access latency
system.mem_ctrls.masterWriteAccesses::.writebacks      1197449                       # Per-master write serviced memory accesses
system.mem_ctrls.masterWriteAvgLat::.writebacks   7563318.20                       # Per-master write average memory access latency
system.mem_ctrls.masterWriteBytes::.writebacks     76634752                       # Per-master bytes write to memory
system.mem_ctrls.masterWriteRate::.writebacks 196282292.746931642294                       # Per-master bytes write to memory rate (Bytes/sec)
system.mem_ctrls.masterWriteTotalLat::.writebacks 9056687809466                       # Per-master write total memory access latency
system.mem_ctrls.mergedWrBursts                     1                       # Number of DRAM write bursts merged with an existing one
system.mem_ctrls.neitherReadNorWriteReqs            0                       # Number of requests that are neither read nor write
system.mem_ctrls.numRdRetry                         0                       # Number of times read queue was full causing retry
system.mem_ctrls.numReadWriteTurnArounds        74307                       # Number of turnarounds from READ to WRITE
system.mem_ctrls.numStayReadState             5637801                       # Number of times bus staying in READ state
system.mem_ctrls.numStayWriteState            1126405                       # Number of times bus staying in WRITE state
system.mem_ctrls.numWrRetry                         0                       # Number of times write queue was full causing retry
system.mem_ctrls.numWriteReadTurnArounds        74307                       # Number of turnarounds from WRITE to READ
system.mem_ctrls.num_reads::.cpu.inst             526                       # Number of read requests responded to by this memory
system.mem_ctrls.num_reads::.cpu.data         2221451                       # Number of read requests responded to by this memory
system.mem_ctrls.num_reads::total             2221977                       # Number of read requests responded to by this memory
system.mem_ctrls.num_writes::.writebacks      1197449                       # Number of write requests responded to by this memory
system.mem_ctrls.num_writes::total            1197449                       # Number of write requests responded to by this memory
system.mem_ctrls.pageHitRate                    87.38                       # Row buffer hit rate, read and write combined
system.mem_ctrls.peakBW                      12800.00                       # Theoretical peak bandwidth in MiByte/s
system.mem_ctrls.perBankRdBursts::0            138754                       # Per bank write bursts
system.mem_ctrls.perBankRdBursts::1            138901                       # Per bank write bursts
system.mem_ctrls.perBankRdBursts::2            139063                       # Per bank write bursts
system.mem_ctrls.perBankRdBursts::3            138990                       # Per bank write bursts
system.mem_ctrls.perBankRdBursts::4            138643                       # Per bank write bursts
system.mem_ctrls.perBankRdBursts::5            138970                       # Per bank write bursts
system.mem_ctrls.perBankRdBursts::6            139061                       # Per bank write bursts
system.mem_ctrls.perBankRdBursts::7            138969                       # Per bank write bursts
system.mem_ctrls.perBankRdBursts::8            138681                       # Per bank write bursts
system.mem_ctrls.perBankRdBursts::9            138688                       # Per bank write bursts
system.mem_ctrls.perBankRdBursts::10           138794                       # Per bank write bursts
system.mem_ctrls.perBankRdBursts::11           138854                       # Per bank write bursts
system.mem_ctrls.perBankRdBursts::12           138442                       # Per bank write bursts
system.mem_ctrls.perBankRdBursts::13           138974                       # Per bank write bursts
system.mem_ctrls.perBankRdBursts::14           138678                       # Per bank write bursts
system.mem_ctrls.perBankRdBursts::15           138969                       # Per bank write bursts
system.mem_ctrls.perBankWrBursts::0             74776                       # Per bank write bursts
system.mem_ctrls.perBankWrBursts::1             75055                       # Per bank write bursts
system.mem_ctrls.perBankWrBursts::2             75358                       # Per bank write bursts
system.mem_ctrls.perBankWrBursts::3             75396                       # Per bank write bursts
system.mem_ctrls.perBankWrBursts::4             74679                       # Per bank write bursts
system.mem_ctrls.perBankWrBursts::5             74613                       # Per bank write bursts
system.mem_ctrls.perBankWrBursts::6             74781                       # Per bank write bursts
system.mem_ctrls.perBankWrBursts::7             74821                       # Per bank write bursts
system.mem_ctrls.perBankWrBursts::8             74507                       # Per bank write bursts
system.mem_ctrls.perBankWrBursts::9             74661                       # Per bank write bursts
system.mem_ctrls.perBankWrBursts::10            74717                       # Per bank write bursts
system.mem_ctrls.perBankWrBursts::11            74875                       # Per bank write bursts
system.mem_ctrls.perBankWrBursts::12            74482                       # Per bank write bursts
system.mem_ctrls.perBankWrBursts::13            74949                       # Per bank write bursts
system.mem_ctrls.perBankWrBursts::14            74686                       # Per bank write bursts
system.mem_ctrls.perBankWrBursts::15            75062                       # Per bank write bursts
system.mem_ctrls.priorityMaxLatency      0.135206918750                       # per QoS priority maximum request to response latency (s)
system.mem_ctrls.priorityMinLatency      0.000000018750                       # per QoS priority minimum request to response latency (s)
system.mem_ctrls.pwrStateResidencyTicks::UNDEFINED 390431306500                       # Cumulative time (in ticks) in various power states
system.mem_ctrls.rdPerTurnAround::samples        74307                       # Reads before turning the bus around for writes
system.mem_ctrls.rdPerTurnAround::mean      29.895097                       # Reads before turning the bus around for writes
system.mem_ctrls.rdPerTurnAround::gmean     27.829809                       # Reads before turning the bus around for writes
system.mem_ctrls.rdPerTurnAround::stdev     56.370206                       # Reads before turning the bus around for writes
system.mem_ctrls.rdPerTurnAround::0-511         74269     99.95%     99.95% # Reads before turning the bus around for writes
system.mem_ctrls.rdPerTurnAround::512-1023           34      0.05%     99.99% # Reads before turning the bus around for writes
system.mem_ctrls.rdPerTurnAround::1024-1535            1      0.00%    100.00% # Reads before turning the bus around for writes
system.mem_ctrls.rdPerTurnAround::3072-3583            1      0.00%    100.00% # Reads before turning the bus around for writes
system.mem_ctrls.rdPerTurnAround::8704-9215            1      0.00%    100.00% # Reads before turning the bus around for writes
system.mem_ctrls.rdPerTurnAround::10752-11263            1      0.00%    100.00% # Reads before turning the bus around for writes
system.mem_ctrls.rdPerTurnAround::total         74307                       # Reads before turning the bus around for writes
system.mem_ctrls.rdQLenPdf::0                 2185569                       # What read queue length does an incoming req see
system.mem_ctrls.rdQLenPdf::1                   30547                       # What read queue length does an incoming req see
system.mem_ctrls.rdQLenPdf::2                    3053                       # What read queue length does an incoming req see
system.mem_ctrls.rdQLenPdf::3                    2262                       # What read queue length does an incoming req see
system.mem_ctrls.rdQLenPdf::4                       0                       # What read queue length does an incoming req see
system.mem_ctrls.rdQLenPdf::5                       0                       # What read queue length does an incoming req see
system.mem_ctrls.rdQLenPdf::6                       0                       # What read queue length does an incoming req see
system.mem_ctrls.rdQLenPdf::7                       0                       # What read queue length does an incoming req see
system.mem_ctrls.rdQLenPdf::8                       0                       # What read queue length does an incoming req see
system.mem_ctrls.rdQLenPdf::9                       0                       # What read queue length does an incoming req see
system.mem_ctrls.rdQLenPdf::10                      0                       # What read queue length does an incoming req see
system.mem_ctrls.rdQLenPdf::11                      0                       # What read queue length does an incoming req see
system.mem_ctrls.rdQLenPdf::12                      0                       # What read queue length does an incoming req see
system.mem_ctrls.rdQLenPdf::13                      0                       # What read queue length does an incoming req see
system.mem_ctrls.rdQLenPdf::14                      0                       # What read queue length does an incoming req see
system.mem_ctrls.rdQLenPdf::15                      0                       # What read queue length does an incoming req see
system.mem_ctrls.rdQLenPdf::16                      0                       # What read queue length does an incoming req see
system.mem_ctrls.rdQLenPdf::17                      0                       # What read queue length does an incoming req see
system.mem_ctrls.rdQLenPdf::18                      0                       # What read queue length does an incoming req see
system.mem_ctrls.rdQLenPdf::19                      0                       # What read queue length does an incoming req see
system.mem_ctrls.rdQLenPdf::20                      0                       # What read queue length does an incoming req see
system.mem_ctrls.rdQLenPdf::21                      0                       # What read queue length does an incoming req see
system.mem_ctrls.rdQLenPdf::22                      0                       # What read queue length does an incoming req see
system.mem_ctrls.rdQLenPdf::23                      0                       # What read queue length does an incoming req see
system.mem_ctrls.rdQLenPdf::24                      0                       # What read queue length does an incoming req see
system.mem_ctrls.rdQLenPdf::25                      0                       # What read queue length does an incoming req see
system.mem_ctrls.rdQLenPdf::26                      0                       # What read queue length does an incoming req see
system.mem_ctrls.rdQLenPdf::27                      0                       # What read queue length does an incoming req see
system.mem_ctrls.rdQLenPdf::28                      0                       # What read queue length does an incoming req see
system.mem_ctrls.rdQLenPdf::29                      0                       # What read queue length does an incoming req see
system.mem_ctrls.rdQLenPdf::30                      0                       # What read queue length does an incoming req see
system.mem_ctrls.rdQLenPdf::31                      0                       # What read queue length does an incoming req see
system.mem_ctrls.readBursts                   2221977                       # Number of DRAM read bursts, including those serviced by the write queue
system.mem_ctrls.readPktSize::0                     0                       # Read request sizes (log2)
system.mem_ctrls.readPktSize::1                     0                       # Read request sizes (log2)
system.mem_ctrls.readPktSize::2                     0                       # Read request sizes (log2)
system.mem_ctrls.readPktSize::3                     0                       # Read request sizes (log2)
system.mem_ctrls.readPktSize::4                     0                       # Read request sizes (log2)
[...]
system.mem_ctrls.wrQLenPdf::26                  74339                       # What write queue length does an incoming req see
system.mem_ctrls.wrQLenPdf::27                  74318                       # What write queue length does an incoming req see
system.mem_ctrls.wrQLenPdf::28                  74323                       # What write queue length does an incoming req see
system.mem_ctrls.wrQLenPdf::29                  74563                       # What write queue length does an incoming req see
system.mem_ctrls.wrQLenPdf::30                  74555                       # What write queue length does an incoming req see
system.mem_ctrls.wrQLenPdf::31                  74392                       # What write queue length does an incoming req see
system.mem_ctrls.wrQLenPdf::32                  74430                       # What write queue length does an incoming req see
system.mem_ctrls.wrQLenPdf::33                     38                       # What write queue length does an incoming req see
system.mem_ctrls.wrQLenPdf::34                      6                       # What write queue length does an incoming req see
system.mem_ctrls.wrQLenPdf::35                      2                       # What write queue length does an incoming req see
system.mem_ctrls.wrQLenPdf::36                      0                       # What write queue length does an incoming req see
system.mem_ctrls.wrQLenPdf::37                      0                       # What write queue length does an incoming req see
system.mem_ctrls.wrQLenPdf::38                      0                       # What write queue length does an incoming req see
system.mem_ctrls.wrQLenPdf::39                      0                       # What write queue length does an incoming req see
system.mem_ctrls.wrQLenPdf::40                      0                       # What write queue length does an incoming req see
system.mem_ctrls.wrQLenPdf::41                      0                       # What write queue length does an incoming req see
system.mem_ctrls.wrQLenPdf::42                      0                       # What write queue length does an incoming req see
system.mem_ctrls.wrQLenPdf::43                      0                       # What write queue length does an incoming req see
system.mem_ctrls.wrQLenPdf::44                      0                       # What write queue length does an incoming req see
system.mem_ctrls.wrQLenPdf::45                      0                       # What write queue length does an incoming req see
system.mem_ctrls.wrQLenPdf::46                      0                       # What write queue length does an incoming req see
system.mem_ctrls.wrQLenPdf::47                      0                       # What write queue length does an incoming req see
system.mem_ctrls.wrQLenPdf::48                      0                       # What write queue length does an incoming req see
system.mem_ctrls.wrQLenPdf::49                      0                       # What write queue length does an incoming req see
system.mem_ctrls.wrQLenPdf::50                      0                       # What write queue length does an incoming req see
system.mem_ctrls.wrQLenPdf::51                      0                       # What write queue length does an incoming req see
system.mem_ctrls.wrQLenPdf::52                      0                       # What write queue length does an incoming req see
system.mem_ctrls.wrQLenPdf::53                      0                       # What write queue length does an incoming req see
system.mem_ctrls.wrQLenPdf::54                      0                       # What write queue length does an incoming req see
system.mem_ctrls.wrQLenPdf::55                      0                       # What write queue length does an incoming req see
system.mem_ctrls.wrQLenPdf::56                      0                       # What write queue length does an incoming req see
system.mem_ctrls.wrQLenPdf::57                      0                       # What write queue length does an incoming req see
system.mem_ctrls.wrQLenPdf::58                      0                       # What write queue length does an incoming req see
system.mem_ctrls.wrQLenPdf::59                      0                       # What write queue length does an incoming req see
system.mem_ctrls.wrQLenPdf::60                      0                       # What write queue length does an incoming req see
system.mem_ctrls.wrQLenPdf::61                      0                       # What write queue length does an incoming req see
system.mem_ctrls.wrQLenPdf::62                      0                       # What write queue length does an incoming req see
system.mem_ctrls.wrQLenPdf::63                      0                       # What write queue length does an incoming req see
system.mem_ctrls.writeBursts                  1197449                       # Number of DRAM write bursts, including those merged in the write queue
system.mem_ctrls.writePktSize::0                    0                       # Write request sizes (log2)
system.mem_ctrls.writePktSize::1                    0                       # Write request sizes (log2)
system.mem_ctrls.writePktSize::2                    0                       # Write request sizes (log2)
system.mem_ctrls.writePktSize::3                    0                       # Write request sizes (log2)
system.mem_ctrls.writePktSize::4                    0                       # Write request sizes (log2)
system.mem_ctrls.writePktSize::5                    0                       # Write request sizes (log2)
system.mem_ctrls.writePktSize::6              1197449                       # Write request sizes (log2)
system.mem_ctrls.writeReqs                    1197449                       # Number of write requests accepted
system.mem_ctrls.writeRowHitRate                87.86                       # Row buffer hit rate for writes
system.mem_ctrls.writeRowHits                 1052052                       # Number of row buffer hits during writes
system.mem_ctrls_0.actBackEnergy          26967940320                       # Energy for active background per rank (pJ)
system.mem_ctrls_0.actEnergy               1545981360                       # Energy for activate commands per rank (pJ)
system.mem_ctrls_0.actPowerDownEnergy     87392687850                       # Energy for active power-down per rank (pJ)
system.mem_ctrls_0.averagePower            495.511489                       # Core power per rank (mW)
system.mem_ctrls_0.memoryStateTime::IDLE   1102655250                       # Time in different power states
system.mem_ctrls_0.memoryStateTime::REF    9991540000                       # Time in different power states
system.mem_ctrls_0.memoryStateTime::SREF  90486274750                       # Time in different power states
system.mem_ctrls_0.memoryStateTime::PRE_PDN  46510551283                       # Time in different power states
system.mem_ctrls_0.memoryStateTime::ACT   50689842664                       # Time in different power states
system.mem_ctrls_0.memoryStateTime::ACT_PDN 191650442553                       # Time in different power states
system.mem_ctrls_0.preBackEnergy           1007278560                       # Energy for precharge background per rank (pJ)
system.mem_ctrls_0.preEnergy                821700990                       # Energy for precharge commands per rank (pJ)
system.mem_ctrls_0.prePowerDownEnergy     17860125600                       # Energy for precharge power-down per rank (pJ)
system.mem_ctrls_0.readEnergy              7935046140                       # Energy for read commands per rank (pJ)
system.mem_ctrls_0.refreshEnergy         23620000560.000004                       # Energy for refresh commands per rank (pJ)
system.mem_ctrls_0.selfRefreshEnergy      23173973100                       # Energy for self refresh per rank (pJ)
system.mem_ctrls_0.totalEnergy           193463198100                       # Total energy per rank (pJ)
system.mem_ctrls_0.totalIdleTime         328646598586                       # Total Idle time Per DRAM Rank
system.mem_ctrls_0.writeEnergy             3129280380                       # Energy for write commands per rank (pJ)
system.mem_ctrls_1.actBackEnergy          26938769430                       # Energy for active background per rank (pJ)
system.mem_ctrls_1.actEnergy               1533443520                       # Energy for activate commands per rank (pJ)
system.mem_ctrls_1.actPowerDownEnergy     87498002760                       # Energy for active power-down per rank (pJ)
system.mem_ctrls_1.averagePower            494.846751                       # Core power per rank (mW)
system.mem_ctrls_1.memoryStateTime::IDLE   1094213499                       # Time in different power states
system.mem_ctrls_1.memoryStateTime::REF    9963720000                       # Time in different power states
system.mem_ctrls_1.memoryStateTime::SREF  91337837250                       # Time in different power states
system.mem_ctrls_1.memoryStateTime::PRE_PDN  45490166280                       # Time in different power states
system.mem_ctrls_1.memoryStateTime::ACT   50661818382                       # Time in different power states
system.mem_ctrls_1.memoryStateTime::ACT_PDN 191883551089                       # Time in different power states
system.mem_ctrls_1.preBackEnergy           1007825280                       # Energy for precharge background per rank (pJ)
system.mem_ctrls_1.preEnergy                815025585                       # Energy for precharge commands per rank (pJ)
system.mem_ctrls_1.prePowerDownEnergy     17468345280                       # Energy for precharge power-down per rank (pJ)
system.mem_ctrls_1.readEnergy              7925971200                       # Energy for read commands per rank (pJ)
system.mem_ctrls_1.refreshEnergy         23554234080.000004                       # Energy for refresh commands per rank (pJ)
system.mem_ctrls_1.selfRefreshEnergy      23331477900                       # Energy for self refresh per rank (pJ)
system.mem_ctrls_1.totalEnergy           193203663645                       # Total energy per rank (pJ)
system.mem_ctrls_1.totalIdleTime         328711441619                       # Total Idle time Per DRAM Rank
system.mem_ctrls_1.writeEnergy             3121241580                       # Energy for write commands per rank (pJ)
system.membus.pkt_count_system.l2.mem_side::system.mem_ctrls.port      6648841                       # Packet count per connected master and slave (bytes)
system.membus.pkt_count_system.l2.mem_side::total      6648841                       # Packet count per connected master and slave (bytes)
system.membus.pkt_count::total                6648841                       # Packet count per connected master and slave (bytes)
system.membus.pkt_size_system.l2.mem_side::system.mem_ctrls.port    218843264                       # Cumulative packet size per connected master and slave (bytes)
system.membus.pkt_size_system.l2.mem_side::total    218843264                       # Cumulative packet size per connected master and slave (bytes)
system.membus.pkt_size::total               218843264                       # Cumulative packet size per connected master and slave (bytes)
system.membus.pwrStateResidencyTicks::UNDEFINED 390431306500                       # Cumulative time (in ticks) in various power states
system.membus.reqLayer2.occupancy          9251651451                       # Layer occupancy (ticks)
system.membus.reqLayer2.utilization               2.4                       # Layer utilization (%)
system.membus.respLayer1.occupancy        11726008318                       # Layer occupancy (ticks)
system.membus.respLayer1.utilization              3.0                       # Layer utilization (%)
system.membus.snoopTraffic                          0                       # Total snoop traffic (bytes)
system.membus.snoop_fanout::samples           2221977                       # Request fanout histogram
system.membus.snoop_fanout::mean                    0                       # Request fanout histogram
system.membus.snoop_fanout::stdev                   0                       # Request fanout histogram
system.membus.snoop_fanout::underflows              0      0.00%      0.00% # Request fanout histogram
system.membus.snoop_fanout::0                 2221977    100.00%    100.00% # Request fanout histogram
system.membus.snoop_fanout::1                       0      0.00%    100.00% # Request fanout histogram
system.membus.snoop_fanout::overflows               0      0.00%    100.00% # Request fanout histogram
system.membus.snoop_fanout::min_value               0                       # Request fanout histogram
system.membus.snoop_fanout::max_value               0                       # Request fanout histogram
system.membus.snoop_fanout::total             2221977                       # Request fanout histogram
system.membus.snoop_filter.hit_multi_requests            0                       # Number of requests hitting in the snoop filter with multiple (>1) holders of the requested data.
system.membus.snoop_filter.hit_multi_snoops            0                       # Number of snoops hitting in the snoop filter with multiple (>1) holders of the requested data.
system.membus.snoop_filter.hit_single_requests      2204887                       # Number of requests hitting in the snoop filter with a single holder of the requested data.
system.membus.snoop_filter.hit_single_snoops            0                       # Number of snoops hitting in the snoop filter with a single holder of the requested data.
system.membus.snoop_filter.tot_requests       4426864                       # Total number of requests made to the snoop filter.
system.membus.snoop_filter.tot_snoops               0                       # Total number of snoops made to the snoop filter.
system.membus.snoops                                0                       # Total snoops (count)
system.membus.trans_dist::ReadResp            1057357                       # Transaction distribution
system.membus.trans_dist::WritebackDirty      1197449                       # Transaction distribution
system.membus.trans_dist::CleanEvict          1007438                       # Transaction distribution
system.membus.trans_dist::ReadExReq           1164620                       # Transaction distribution
system.membus.trans_dist::ReadExResp          1164620                       # Transaction distribution
system.membus.trans_dist::ReadSharedReq       1057357                       # Transaction distribution
system.pwrStateResidencyTicks::UNDEFINED 390431306500                       # Cumulative time (in ticks) in various power states
system.tol2bus.pkt_count_system.cpu.icache.mem_side::system.l2.cpu_side         1060                       # Packet count per connected master and slave (bytes)
system.tol2bus.pkt_count_system.cpu.dcache.mem_side::system.l2.cpu_side      7159669                       # Packet count per connected master and slave (bytes)
system.tol2bus.pkt_count::total               7160729                       # Packet count per connected master and slave (bytes)
system.tol2bus.pkt_size_system.cpu.icache.mem_side::system.l2.cpu_side        34112                       # Cumulative packet size per connected master and slave (bytes)
system.tol2bus.pkt_size_system.cpu.dcache.mem_side::system.l2.cpu_side    240801408                       # Cumulative packet size per connected master and slave (bytes)
system.tol2bus.pkt_size::total              240835520                       # Cumulative packet size per connected master and slave (bytes)
system.tol2bus.pwrStateResidencyTicks::UNDEFINED 390431306500                       # Cumulative time (in ticks) in various power states
system.tol2bus.reqLayer0.occupancy         3761770500                       # Layer occupancy (ticks)
system.tol2bus.reqLayer0.utilization              1.0                       # Layer utilization (%)
system.tol2bus.respLayer0.occupancy            790500                       # Layer occupancy (ticks)
system.tol2bus.respLayer0.utilization             0.0                       # Layer utilization (%)
system.tol2bus.respLayer1.occupancy        3580858500                       # Layer occupancy (ticks)
system.tol2bus.respLayer1.utilization             0.9                       # Layer utilization (%)
system.tol2bus.snoopTraffic                  76636736                       # Total snoop traffic (bytes)
system.tol2bus.snoop_fanout::samples          4616823                       # Request fanout histogram
system.tol2bus.snoop_fanout::mean            0.017705                       # Request fanout histogram
system.tol2bus.snoop_fanout::stdev           0.131879                       # Request fanout histogram
system.tol2bus.snoop_fanout::underflows             0      0.00%      0.00% # Request fanout histogram
system.tol2bus.snoop_fanout::0                4535080     98.23%     98.23% # Request fanout histogram
system.tol2bus.snoop_fanout::1                  81743      1.77%    100.00% # Request fanout histogram
system.tol2bus.snoop_fanout::2                      0      0.00%    100.00% # Request fanout histogram
system.tol2bus.snoop_fanout::3                      0      0.00%    100.00% # Request fanout histogram
system.tol2bus.snoop_fanout::4                      0      0.00%    100.00% # Request fanout histogram
system.tol2bus.snoop_fanout::overflows              0      0.00%    100.00% # Request fanout histogram
system.tol2bus.snoop_fanout::min_value              0                       # Request fanout histogram
system.tol2bus.snoop_fanout::max_value              1                       # Request fanout histogram
system.tol2bus.snoop_fanout::total            4616823                       # Request fanout histogram
system.tol2bus.snoop_filter.hit_multi_requests            1                       # Number of requests hitting in the snoop filter with multiple (>1) holders of the requested data.
system.tol2bus.snoop_filter.hit_multi_snoops            0                       # Number of snoops hitting in the snoop filter with multiple (>1) holders of the requested data.
system.tol2bus.snoop_filter.hit_single_requests      2385197                       # Number of requests hitting in the snoop filter with a single holder of the requested data.
system.tol2bus.snoop_filter.hit_single_snoops        81742                       # Number of snoops hitting in the snoop filter with a single holder of the requested data.
system.tol2bus.snoop_filter.tot_requests      4772963                       # Total number of requests made to the snoop filter.
system.tol2bus.snoop_filter.tot_snoops          81742                       # Total number of snoops made to the snoop filter.
system.tol2bus.snoops                         2229057                       # Total snoops (count)
system.tol2bus.trans_dist::ReadResp           1159463                       # Transaction distribution
system.tol2bus.trans_dist::WritebackDirty      2572732                       # Transaction distribution
system.tol2bus.trans_dist::WritebackClean            6                       # Transaction distribution
system.tol2bus.trans_dist::CleanEvict         2041516                       # Transaction distribution
system.tol2bus.trans_dist::ReadExReq          1228303                       # Transaction distribution
system.tol2bus.trans_dist::ReadExResp         1228303                       # Transaction distribution
system.tol2bus.trans_dist::ReadCleanReq           527                       # Transaction distribution
system.tol2bus.trans_dist::ReadSharedReq      1158936                       # Transaction distribution
system.voltage_domain.voltage                       1                       # Voltage in Volts

---------- End Simulation Statistics   ----------
