
---------- Begin Simulation Statistics ----------
final_tick                               191772313500                       # Number of ticks from beginning of simulation (restored from checkpoints and never reset)
host_inst_rate                                 581186                       # Simulator instruction rate (inst/s)
host_mem_usage                                 822652                       # Number of bytes of host memory used
host_op_rate                                   752794                       # Simulator op (including micro ops) rate (op/s)
host_seconds                                   172.06                       # Real time elapsed on the host
host_tick_rate                             1114539880                       # Simulator tick rate (ticks/s)
sim_freq                                 1000000000000                       # Frequency of simulated ticks
sim_insts                                   100000000                       # Number of instructions simulated
sim_ops                                     129528817                       # Number of ops (including micro ops) simulated
sim_seconds                                  0.191772                       # Number of seconds simulated
sim_ticks                                191772313500                       # Number of ticks simulated
system.clk_domain.clock                          1000                       # Clock period in ticks
system.cpu.Branches                           5618420                       # Number of branches fetched
system.cpu.apic_clk_domain.clock                 8000                       # Clock period in ticks
system.cpu.committedInsts                   100000000                       # Number of instructions committed
system.cpu.committedOps                     129528817                       # Number of ops (including micro ops) committed
system.cpu.dcache.ReadReq_accesses::.cpu.data     43799218                       # number of ReadReq accesses(hits+misses)
system.cpu.dcache.ReadReq_accesses::total     43799218                       # number of ReadReq accesses(hits+misses)
system.cpu.dcache.ReadReq_avg_miss_latency::.cpu.data 16048.773285                       # average ReadReq miss latency
system.cpu.dcache.ReadReq_avg_miss_latency::total 16048.773285                       # average ReadReq miss latency
system.cpu.dcache.ReadReq_avg_mshr_miss_latency::.cpu.data 15048.773285                       # average ReadReq mshr miss latency
system.cpu.dcache.ReadReq_avg_mshr_miss_latency::total 15048.773285                       # average ReadReq mshr miss latency
system.cpu.dcache.ReadReq_hits::.cpu.data     43777208                       # number of ReadReq hits
system.cpu.dcache.ReadReq_hits::total        43777208                       # number of ReadReq hits
system.cpu.dcache.ReadReq_miss_latency::.cpu.data    353233500                       # number of ReadReq miss cycles
system.cpu.dcache.ReadReq_miss_latency::total    353233500                       # number of ReadReq miss cycles
system.cpu.dcache.ReadReq_miss_rate::.cpu.data     0.000503                       # miss rate for ReadReq accesses
system.cpu.dcache.ReadReq_miss_rate::total     0.000503                       # miss rate for ReadReq accesses
system.cpu.dcache.ReadReq_misses::.cpu.data        22010                       # number of ReadReq misses
system.cpu.dcache.ReadReq_misses::total         22010                       # number of ReadReq misses
system.cpu.dcache.ReadReq_mshr_miss_latency::.cpu.data    331223500                       # number of ReadReq MSHR miss cycles
system.cpu.dcache.ReadReq_mshr_miss_latency::total    331223500                       # number of ReadReq MSHR miss cycles
system.cpu.dcache.ReadReq_mshr_miss_rate::.cpu.data     0.000503                       # mshr miss rate for ReadReq accesses
system.cpu.dcache.ReadReq_mshr_miss_rate::total     0.000503                       # mshr miss rate for ReadReq accesses
system.cpu.dcache.ReadReq_mshr_misses::.cpu.data        22010                       # number of ReadReq MSHR misses
system.cpu.dcache.ReadReq_mshr_misses::total        22010                       # number of ReadReq MSHR misses
system.cpu.dcache.SoftPFReq_accesses::.cpu.data         4638                       # number of SoftPFReq accesses(hits+misses)
system.cpu.dcache.SoftPFReq_accesses::total         4638                       # number of SoftPFReq accesses(hits+misses)
system.cpu.dcache.SoftPFReq_avg_mshr_miss_latency::.cpu.data 30708.698170                       # average SoftPFReq mshr miss latency
system.cpu.dcache.SoftPFReq_avg_mshr_miss_latency::total 30708.698170                       # average SoftPFReq mshr miss latency
system.cpu.dcache.SoftPFReq_hits::.cpu.data          649                       # number of SoftPFReq hits
system.cpu.dcache.SoftPFReq_hits::total           649                       # number of SoftPFReq hits
system.cpu.dcache.SoftPFReq_miss_rate::.cpu.data     0.860069                       # miss rate for SoftPFReq accesses
system.cpu.dcache.SoftPFReq_miss_rate::total     0.860069                       # miss rate for SoftPFReq accesses
system.cpu.dcache.SoftPFReq_misses::.cpu.data         3989                       # number of SoftPFReq misses
system.cpu.dcache.SoftPFReq_misses::total         3989                       # number of SoftPFReq misses
system.cpu.dcache.SoftPFReq_mshr_miss_latency::.cpu.data    122496997                       # number of SoftPFReq MSHR miss cycles
system.cpu.dcache.SoftPFReq_mshr_miss_latency::total    122496997                       # number of SoftPFReq MSHR miss cycles
system.cpu.dcache.SoftPFReq_mshr_miss_rate::.cpu.data     0.860069                       # mshr miss rate for SoftPFReq accesses
system.cpu.dcache.SoftPFReq_mshr_miss_rate::total     0.860069                       # mshr miss rate for SoftPFReq accesses
system.cpu.dcache.SoftPFReq_mshr_misses::.cpu.data         3989                       # number of SoftPFReq MSHR misses
system.cpu.dcache.SoftPFReq_mshr_misses::total         3989                       # number of SoftPFReq MSHR misses
system.cpu.dcache.WriteReq_accesses::.cpu.data      7217753                       # number of WriteReq accesses(hits+misses)
system.cpu.dcache.WriteReq_accesses::total      7217753                       # number of WriteReq accesses(hits+misses)
system.cpu.dcache.WriteReq_avg_miss_latency::.cpu.data 17305.126272                       # average WriteReq miss latency
system.cpu.dcache.WriteReq_avg_miss_latency::total 17305.126272                       # average WriteReq miss latency
system.cpu.dcache.WriteReq_avg_mshr_miss_latency::.cpu.data 16305.126272                       # average WriteReq mshr miss latency
system.cpu.dcache.WriteReq_avg_mshr_miss_latency::total 16305.126272                       # average WriteReq mshr miss latency
system.cpu.dcache.WriteReq_hits::.cpu.data      7148775                       # number of WriteReq hits
system.cpu.dcache.WriteReq_hits::total        7148775                       # number of WriteReq hits
system.cpu.dcache.WriteReq_miss_latency::.cpu.data   1193673000                       # number of WriteReq miss cycles
system.cpu.dcache.WriteReq_miss_latency::total   1193673000                       # number of WriteReq miss cycles
system.cpu.dcache.WriteReq_miss_rate::.cpu.data     0.009557                       # miss rate for WriteReq accesses
system.cpu.dcache.WriteReq_miss_rate::total     0.009557                       # miss rate for WriteReq accesses
system.cpu.dcache.WriteReq_misses::.cpu.data        68978                       # number of WriteReq misses
system.cpu.dcache.WriteReq_misses::total        68978                       # number of WriteReq misses
system.cpu.dcache.WriteReq_mshr_miss_latency::.cpu.data   1124695000                       # number of WriteReq MSHR miss cycles
system.cpu.dcache.WriteReq_mshr_miss_latency::total   1124695000                       # number of WriteReq MSHR miss cycles
system.cpu.dcache.WriteReq_mshr_miss_rate::.cpu.data     0.009557                       # mshr miss rate for WriteReq accesses
system.cpu.dcache.WriteReq_mshr_miss_rate::total     0.009557                       # mshr miss rate for WriteReq accesses
system.cpu.dcache.WriteReq_mshr_misses::.cpu.data        68978                       # number of WriteReq MSHR misses
system.cpu.dcache.WriteReq_mshr_misses::total        68978                       # number of WriteReq MSHR misses
system.cpu.dcache.avg_blocked_cycles::no_mshrs    37.100000                       # average number of cycles each access was blocked
system.cpu.dcache.avg_blocked_cycles::no_targets          nan                       # average number of cycles each access was blocked
system.cpu.dcache.blocked::no_mshrs               390                       # number of cycles access was blocked
system.cpu.dcache.blocked::no_targets               0                       # number of cycles access was blocked
system.cpu.dcache.blocked_cycles::no_mshrs        14469                       # number of cycles access was blocked
system.cpu.dcache.blocked_cycles::no_targets            0                       # number of cycles access was blocked
system.cpu.dcache.demand_accesses::.cpu.data     51016971                       # number of demand (read+write) accesses
system.cpu.dcache.demand_accesses::total     51016971                       # number of demand (read+write) accesses
system.cpu.dcache.demand_avg_miss_latency::.cpu.data 17001.214446                       # average overall miss latency
system.cpu.dcache.demand_avg_miss_latency::total 17001.214446                       # average overall miss latency
system.cpu.dcache.demand_avg_mshr_miss_latency::.cpu.data 16001.214446                       # average overall mshr miss latency
system.cpu.dcache.demand_avg_mshr_miss_latency::total 16001.214446                       # average overall mshr miss latency
system.cpu.dcache.demand_hits::.cpu.data     50925983                       # number of demand (read+write) hits
system.cpu.dcache.demand_hits::total         50925983                       # number of demand (read+write) hits
system.cpu.dcache.demand_miss_latency::.cpu.data   1546906500                       # number of demand (read+write) miss cycles
system.cpu.dcache.demand_miss_latency::total   1546906500                       # number of demand (read+write) miss cycles
system.cpu.dcache.demand_miss_rate::.cpu.data     0.001783                       # miss rate for demand accesses
system.cpu.dcache.demand_miss_rate::total     0.001783                       # miss rate for demand accesses
system.cpu.dcache.demand_misses::.cpu.data        90988                       # number of demand (read+write) misses
system.cpu.dcache.demand_misses::total          90988                       # number of demand (read+write) misses
system.cpu.dcache.demand_mshr_miss_latency::.cpu.data   1455918500                       # number of demand (read+write) MSHR miss cycles
system.cpu.dcache.demand_mshr_miss_latency::total   1455918500                       # number of demand (read+write) MSHR miss cycles
system.cpu.dcache.demand_mshr_miss_rate::.cpu.data     0.001783                       # mshr miss rate for demand accesses
system.cpu.dcache.demand_mshr_miss_rate::total     0.001783                       # mshr miss rate for demand accesses
system.cpu.dcache.demand_mshr_misses::.cpu.data        90988                       # number of demand (read+write) MSHR misses
system.cpu.dcache.demand_mshr_misses::total        90988                       # number of demand (read+write) MSHR misses
system.cpu.dcache.overall_accesses::.cpu.data     51021609                       # number of overall (read+write) accesses
system.cpu.dcache.overall_accesses::total     51021609                       # number of overall (read+write) accesses
system.cpu.dcache.overall_avg_miss_latency::.cpu.data 16287.169525                       # average overall miss latency
system.cpu.dcache.overall_avg_miss_latency::total 16287.169525                       # average overall miss latency
system.cpu.dcache.overall_avg_mshr_miss_latency::.cpu.data 16618.923497                       # average overall mshr miss latency
system.cpu.dcache.overall_avg_mshr_miss_latency::total 16618.923497                       # average overall mshr miss latency
system.cpu.dcache.overall_hits::.cpu.data     50926632                       # number of overall hits
system.cpu.dcache.overall_hits::total        50926632                       # number of overall hits
system.cpu.dcache.overall_miss_latency::.cpu.data   1546906500                       # number of overall miss cycles
system.cpu.dcache.overall_miss_latency::total   1546906500                       # number of overall miss cycles
system.cpu.dcache.overall_miss_rate::.cpu.data     0.001862                       # miss rate for overall accesses
system.cpu.dcache.overall_miss_rate::total     0.001862                       # miss rate for overall accesses
system.cpu.dcache.overall_misses::.cpu.data        94977                       # number of overall misses
system.cpu.dcache.overall_misses::total         94977                       # number of overall misses
system.cpu.dcache.overall_mshr_miss_latency::.cpu.data   1578415497                       # number of overall MSHR miss cycles
system.cpu.dcache.overall_mshr_miss_latency::total   1578415497                       # number of overall MSHR miss cycles
system.cpu.dcache.overall_mshr_miss_rate::.cpu.data     0.001862                       # mshr miss rate for overall accesses
system.cpu.dcache.overall_mshr_miss_rate::total     0.001862                       # mshr miss rate for overall accesses
system.cpu.dcache.overall_mshr_misses::.cpu.data        94977                       # number of overall MSHR misses
system.cpu.dcache.overall_mshr_misses::total        94977                       # number of overall MSHR misses
system.cpu.dcache.pwrStateResidencyTicks::UNDEFINED 191772313500                       # Cumulative time (in ticks) in various power states
system.cpu.dcache.replacements                  93953                       # number of replacements
system.cpu.dcache.tags.age_task_id_blocks_1024::2          318                       # Occupied blocks per task id
system.cpu.dcache.tags.age_task_id_blocks_1024::3          475                       # Occupied blocks per task id
system.cpu.dcache.tags.age_task_id_blocks_1024::4          231                       # Occupied blocks per task id
system.cpu.dcache.tags.avg_refs            537.199627                       # Average number of references to valid blocks.
system.cpu.dcache.tags.data_accesses        102138195                       # Number of data accesses
system.cpu.dcache.tags.occ_blocks::.cpu.data  1020.409280                       # Average occupied blocks per requestor
system.cpu.dcache.tags.occ_percent::.cpu.data     0.996493                       # Average percentage of cache occupancy
system.cpu.dcache.tags.occ_percent::total     0.996493                       # Average percentage of cache occupancy
system.cpu.dcache.tags.occ_task_id_blocks::1024         1024                       # Occupied blocks per task id
system.cpu.dcache.tags.occ_task_id_percent::1024            1                       # Percentage of cache occupancy per task id
system.cpu.dcache.tags.pwrStateResidencyTicks::UNDEFINED 191772313500                       # Cumulative time (in ticks) in various power states
system.cpu.dcache.tags.sampled_refs             94977                       # Sample count of references to valid blocks.
system.cpu.dcache.tags.tag_accesses         102138195                       # Number of tag accesses
system.cpu.dcache.tags.tagsinuse          1020.409280                       # Cycle average of tags in use
system.cpu.dcache.tags.total_refs            51021609                       # Total number of references to valid blocks.
system.cpu.dcache.tags.warmup_cycle            181500                       # Cycle when the warmup percentage was hit.
system.cpu.dcache.writebacks::.writebacks        92447                       # number of writebacks
system.cpu.dcache.writebacks::total             92447                       # number of writebacks
system.cpu.dtb.pwrStateResidencyTicks::UNDEFINED 191772313500                       # Cumulative time (in ticks) in various power states
system.cpu.dtb.rdAccesses                    43803856                       # TLB accesses on read requests
system.cpu.dtb.rdMisses                            79                       # TLB misses on read requests
system.cpu.dtb.walker.pwrStateResidencyTicks::UNDEFINED 191772313500                       # Cumulative time (in ticks) in various power states
system.cpu.dtb.wrAccesses                     7217753                       # TLB accesses on write requests
system.cpu.dtb.wrMisses                            72                       # TLB misses on write requests
system.cpu.dtb_walker_cache.avg_blocked_cycles::no_mshrs          nan                       # average number of cycles each access was blocked
system.cpu.dtb_walker_cache.avg_blocked_cycles::no_targets          nan                       # average number of cycles each access was blocked
system.cpu.dtb_walker_cache.blocked::no_mshrs            0                       # number of cycles access was blocked
system.cpu.dtb_walker_cache.blocked::no_targets            0                       # number of cycles access was blocked
system.cpu.dtb_walker_cache.blocked_cycles::no_mshrs            0                       # number of cycles access was blocked
system.cpu.dtb_walker_cache.blocked_cycles::no_targets            0                       # number of cycles access was blocked
system.cpu.dtb_walker_cache.pwrStateResidencyTicks::UNDEFINED 191772313500                       # Cumulative time (in ticks) in various power states
system.cpu.dtb_walker_cache.replacements            0                       # number of replacements
system.cpu.dtb_walker_cache.tags.avg_refs          nan                       # Average number of references to valid blocks.
system.cpu.dtb_walker_cache.tags.data_accesses            0                       # Number of data accesses
system.cpu.dtb_walker_cache.tags.pwrStateResidencyTicks::UNDEFINED 191772313500                       # Cumulative time (in ticks) in various power states
system.cpu.dtb_walker_cache.tags.sampled_refs            0                       # Sample count of references to valid blocks.
system.cpu.dtb_walker_cache.tags.tag_accesses            0                       # Number of tag accesses
system.cpu.dtb_walker_cache.tags.tagsinuse            0                       # Cycle average of tags in use
system.cpu.dtb_walker_cache.tags.total_refs            0                       # Total number of references to valid blocks.
system.cpu.dtb_walker_cache.tags.warmup_cycle            0                       # Cycle when the warmup percentage was hit.
system.cpu.icache.ReadReq_accesses::.cpu.inst    139165069                       # number of ReadReq accesses(hits+misses)
system.cpu.icache.ReadReq_accesses::total    139165069                       # number of ReadReq accesses(hits+misses)
system.cpu.icache.ReadReq_avg_miss_latency::.cpu.inst 92648.588410                       # average ReadReq miss latency
system.cpu.icache.ReadReq_avg_miss_latency::total 92648.588410                       # average ReadReq miss latency
system.cpu.icache.ReadReq_avg_mshr_miss_latency::.cpu.inst 91648.588410                       # average ReadReq mshr miss latency
system.cpu.icache.ReadReq_avg_mshr_miss_latency::total 91648.588410                       # average ReadReq mshr miss latency
system.cpu.icache.ReadReq_hits::.cpu.inst    139163723                       # number of ReadReq hits
system.cpu.icache.ReadReq_hits::total       139163723                       # number of ReadReq hits
system.cpu.icache.ReadReq_miss_latency::.cpu.inst    124705000                       # number of ReadReq miss cycles
system.cpu.icache.ReadReq_miss_latency::total    124705000                       # number of ReadReq miss cycles
system.cpu.icache.ReadReq_miss_rate::.cpu.inst     0.000010                       # miss rate for ReadReq accesses
system.cpu.icache.ReadReq_miss_rate::total     0.000010                       # miss rate for ReadReq accesses
system.cpu.icache.ReadReq_misses::.cpu.inst         1346                       # number of ReadReq misses
system.cpu.icache.ReadReq_misses::total          1346                       # number of ReadReq misses
system.cpu.icache.ReadReq_mshr_miss_latency::.cpu.inst    123359000                       # number of ReadReq MSHR miss cycles
system.cpu.icache.ReadReq_mshr_miss_latency::total    123359000                       # number of ReadReq MSHR miss cycles
system.cpu.icache.ReadReq_mshr_miss_rate::.cpu.inst     0.000010                       # mshr miss rate for ReadReq accesses
system.cpu.icache.ReadReq_mshr_miss_rate::total     0.000010                       # mshr miss rate for ReadReq accesses
system.cpu.icache.ReadReq_mshr_misses::.cpu.inst         1346                       # number of ReadReq MSHR misses
system.cpu.icache.ReadReq_mshr_misses::total         1346                       # number of ReadReq MSHR misses
system.cpu.icache.avg_blocked_cycles::no_mshrs          nan                       # average number of cycles each access was blocked
system.cpu.icache.avg_blocked_cycles::no_targets          nan                       # average number of cycles each access was blocked
system.cpu.icache.blocked::no_mshrs                 0                       # number of cycles access was blocked
system.cpu.icache.blocked::no_targets               0                       # number of cycles access was blocked
system.cpu.icache.blocked_cycles::no_mshrs            0                       # number of cycles access was blocked
system.cpu.icache.blocked_cycles::no_targets            0                       # number of cycles access was blocked
system.cpu.icache.demand_accesses::.cpu.inst    139165069                       # number of demand (read+write) accesses
system.cpu.icache.demand_accesses::total    139165069                       # number of demand (read+write) accesses
system.cpu.icache.demand_avg_miss_latency::.cpu.inst 92648.588410                       # average overall miss latency
system.cpu.icache.demand_avg_miss_latency::total 92648.588410                       # average overall miss latency
system.cpu.icache.demand_avg_mshr_miss_latency::.cpu.inst 91648.588410                       # average overall mshr miss latency
system.cpu.icache.demand_avg_mshr_miss_latency::total 91648.588410                       # average overall mshr miss latency
system.cpu.icache.demand_hits::.cpu.inst    139163723                       # number of demand (read+write) hits
system.cpu.icache.demand_hits::total        139163723                       # number of demand (read+write) hits
system.cpu.icache.demand_miss_latency::.cpu.inst    124705000                       # number of demand (read+write) miss cycles
system.cpu.icache.demand_miss_latency::total    124705000                       # number of demand (read+write) miss cycles
system.cpu.icache.demand_miss_rate::.cpu.inst     0.000010                       # miss rate for demand accesses
system.cpu.icache.demand_miss_rate::total     0.000010                       # miss rate for demand accesses
system.cpu.icache.demand_misses::.cpu.inst         1346                       # number of demand (read+write) misses
system.cpu.icache.demand_misses::total           1346                       # number of demand (read+write) misses
system.cpu.icache.demand_mshr_miss_latency::.cpu.inst    123359000                       # number of demand (read+write) MSHR miss cycles
system.cpu.icache.demand_mshr_miss_latency::total    123359000                       # number of demand (read+write) MSHR miss cycles
system.cpu.icache.demand_mshr_miss_rate::.cpu.inst     0.000010                       # mshr miss rate for demand accesses
system.cpu.icache.demand_mshr_miss_rate::total     0.000010                       # mshr miss rate for demand accesses
system.cpu.icache.demand_mshr_misses::.cpu.inst         1346                       # number of demand (read+write) MSHR misses
system.cpu.icache.demand_mshr_misses::total         1346                       # number of demand (read+write) MSHR misses
system.cpu.icache.overall_accesses::.cpu.inst    139165069                       # number of overall (read+write) accesses
system.cpu.icache.overall_accesses::total    139165069                       # number of overall (read+write) accesses
system.cpu.icache.overall_avg_miss_latency::.cpu.inst 92648.588410                       # average overall miss latency
system.cpu.icache.overall_avg_miss_latency::total 92648.588410                       # average overall miss latency
system.cpu.icache.overall_avg_mshr_miss_latency::.cpu.inst 91648.588410                       # average overall mshr miss latency
system.cpu.icache.overall_avg_mshr_miss_latency::total 91648.588410                       # average overall mshr miss latency
system.cpu.icache.overall_hits::.cpu.inst    139163723                       # number of overall hits
system.cpu.icache.overall_hits::total       139163723                       # number of overall hits
system.cpu.icache.overall_miss_latency::.cpu.inst    124705000                       # number of overall miss cycles
system.cpu.icache.overall_miss_latency::total    124705000                       # number of overall miss cycles
system.cpu.icache.overall_miss_rate::.cpu.inst     0.000010                       # miss rate for overall accesses
system.cpu.icache.overall_miss_rate::total     0.000010                       # miss rate for overall accesses
system.cpu.icache.overall_misses::.cpu.inst         1346                       # number of overall misses
system.cpu.icache.overall_misses::total          1346                       # number of overall misses
system.cpu.icache.overall_mshr_miss_latency::.cpu.inst    123359000                       # number of overall MSHR miss cycles
system.cpu.icache.overall_mshr_miss_latency::total    123359000                       # number of overall MSHR miss cycles
system.cpu.icache.overall_mshr_miss_rate::.cpu.inst     0.000010                       # mshr miss rate for overall accesses
system.cpu.icache.overall_mshr_miss_rate::total     0.000010                       # mshr miss rate for overall accesses
system.cpu.icache.overall_mshr_misses::.cpu.inst         1346                       # number of overall MSHR misses
system.cpu.icache.overall_mshr_misses::total         1346                       # number of overall MSHR misses
system.cpu.icache.pwrStateResidencyTicks::UNDEFINED 191772313500                       # Cumulative time (in ticks) in various power states
system.cpu.icache.replacements                    167                       # number of replacements
system.cpu.icache.tags.age_task_id_blocks_1024::4         1179                       # Occupied blocks per task id
system.cpu.icache.tags.avg_refs          103391.581724                       # Average number of references to valid blocks.
system.cpu.icache.tags.data_accesses        278331484                       # Number of data accesses
system.cpu.icache.tags.occ_blocks::.cpu.inst  1172.362292                       # Average occupied blocks per requestor
system.cpu.icache.tags.occ_percent::.cpu.inst     0.572443                       # Average percentage of cache occupancy
system.cpu.icache.tags.occ_percent::total     0.572443                       # Average percentage of cache occupancy
system.cpu.icache.tags.occ_task_id_blocks::1024         1179                       # Occupied blocks per task id
system.cpu.icache.tags.occ_task_id_percent::1024     0.575684                       # Percentage of cache occupancy per task id
system.cpu.icache.tags.pwrStateResidencyTicks::UNDEFINED 191772313500                       # Cumulative time (in ticks) in various power states
system.cpu.icache.tags.sampled_refs              1346                       # Sample count of references to valid blocks.
system.cpu.icache.tags.tag_accesses         278331484                       # Number of tag accesses
system.cpu.icache.tags.tagsinuse          1172.362292                       # Cycle average of tags in use
system.cpu.icache.tags.total_refs           139165069                       # Total number of references to valid blocks.
system.cpu.icache.tags.warmup_cycle             87500                       # Cycle when the warmup percentage was hit.
system.cpu.icache.writebacks::.writebacks          167                       # number of writebacks
system.cpu.icache.writebacks::total               167                       # number of writebacks
system.cpu.idle_fraction                            0                       # Percentage of idle cycles
system.cpu.interrupts.pwrStateResidencyTicks::UNDEFINED 191772313500                       # Cumulative time (in ticks) in various power states
system.cpu.itb.pwrStateResidencyTicks::UNDEFINED 191772313500                       # Cumulative time (in ticks) in various power states
system.cpu.itb.rdAccesses                           0                       # TLB accesses on read requests
system.cpu.itb.rdMisses                             0                       # TLB misses on read requests
system.cpu.itb.walker.pwrStateResidencyTicks::UNDEFINED 191772313500                       # Cumulative time (in ticks) in various power states
system.cpu.itb.wrAccesses                   139165069                       # TLB accesses on write requests
system.cpu.itb.wrMisses                            94                       # TLB misses on write requests
system.cpu.itb_walker_cache.avg_blocked_cycles::no_mshrs          nan                       # average number of cycles each access was blocked
system.cpu.itb_walker_cache.avg_blocked_cycles::no_targets          nan                       # average number of cycles each access was blocked
system.cpu.itb_walker_cache.blocked::no_mshrs            0                       # number of cycles access was blocked
system.cpu.itb_walker_cache.blocked::no_targets            0                       # number of cycles access was blocked
system.cpu.itb_walker_cache.blocked_cycles::no_mshrs            0                       # number of cycles access was blocked
system.cpu.itb_walker_cache.blocked_cycles::no_targets            0                       # number of cycles access was blocked
system.cpu.itb_walker_cache.pwrStateResidencyTicks::UNDEFINED 191772313500                       # Cumulative time (in ticks) in various power states
system.cpu.itb_walker_cache.replacements            0                       # number of replacements
system.cpu.itb_walker_cache.tags.avg_refs          nan                       # Average number of references to valid blocks.
system.cpu.itb_walker_cache.tags.data_accesses            0                       # Number of data accesses
system.cpu.itb_walker_cache.tags.pwrStateResidencyTicks::UNDEFINED 191772313500                       # Cumulative time (in ticks) in various power states
system.cpu.itb_walker_cache.tags.sampled_refs            0                       # Sample count of references to valid blocks.
system.cpu.itb_walker_cache.tags.tag_accesses            0                       # Number of tag accesses
system.cpu.itb_walker_cache.tags.tagsinuse            0                       # Cycle average of tags in use
system.cpu.itb_walker_cache.tags.total_refs            0                       # Total number of references to valid blocks.
system.cpu.itb_walker_cache.tags.warmup_cycle            0                       # Cycle when the warmup percentage was hit.
system.cpu.not_idle_fraction                        1                       # Percentage of non-idle cycles
system.cpu.numCycles                        383544627                       # number of cpu cycles simulated
system.cpu.numWorkItemsCompleted                    0                       # number of work items this cpu completed
system.cpu.numWorkItemsStarted                      0                       # number of work items this cpu started
system.cpu.num_busy_cycles                  383544627                       # Number of busy cycles
system.cpu.num_cc_register_reads             37965265                       # number of times the CC registers were read
system.cpu.num_cc_register_writes            52208465                       # number of times the CC registers were written
system.cpu.num_conditional_control_insts      5138034                       # number of instructions that are conditional controls
system.cpu.num_fp_alu_accesses                5707266                       # Number of float alu accesses
system.cpu.num_fp_insts                       5707266                       # number of float instructions
system.cpu.num_fp_register_reads              4658582                       # number of times the floating registers were read
system.cpu.num_fp_register_writes             4885696                       # number of times the floating registers were written
system.cpu.num_func_calls                      316255                       # number of times a function call or return occured
system.cpu.num_idle_cycles                          0                       # Number of idle cycles
system.cpu.num_int_alu_accesses             125550466                       # Number of integer alu accesses
system.cpu.num_int_insts                    125550466                       # number of integer instructions
system.cpu.num_int_register_reads           294168655                       # number of times the integer registers were read
system.cpu.num_int_register_writes          114123176                       # number of times the integer registers were written
system.cpu.num_load_insts                    43803356                       # Number of load instructions
system.cpu.num_mem_refs                      51021044                       # number of memory refs
system.cpu.num_store_insts                    7217688                       # Number of store instructions
system.cpu.num_vec_alu_accesses                     0                       # Number of vector alu accesses
system.cpu.num_vec_insts                            0                       # number of vector instructions
system.cpu.num_vec_register_reads                   0                       # number of times the vector registers were read
system.cpu.num_vec_register_writes                  0                       # number of times the vector registers were written
system.cpu.op_class::No_OpClass                350142      0.27%      0.27% # Class of executed instruction
system.cpu.op_class::IntAlu                  73094966     56.43%     56.70% # Class of executed instruction
system.cpu.op_class::IntMult                   134101      0.10%     56.81% # Class of executed instruction
system.cpu.op_class::IntDiv                   1267028      0.98%     57.78% # Class of executed instruction
system.cpu.op_class::FloatAdd                 1914704      1.48%     59.26% # Class of executed instruction
system.cpu.op_class::FloatCmp                       0      0.00%     59.26% # Class of executed instruction
system.cpu.op_class::FloatCvt                       0      0.00%     59.26% # Class of executed instruction
system.cpu.op_class::FloatMult                      0      0.00%     59.26% # Class of executed instruction
system.cpu.op_class::FloatMultAcc                   0      0.00%     59.26% # Class of executed instruction
system.cpu.op_class::FloatDiv                       0      0.00%     59.26% # Class of executed instruction
system.cpu.op_class::FloatMisc                      0      0.00%     59.26% # Class of executed instruction
system.cpu.op_class::FloatSqrt                      0      0.00%     59.26% # Class of executed instruction
system.cpu.op_class::SimdAdd                      450      0.00%     59.26% # Class of executed instruction
system.cpu.op_class::SimdAddAcc                     0      0.00%     59.26% # Class of executed instruction
system.cpu.op_class::SimdAlu                   162810      0.13%     59.39% # Class of executed instruction
system.cpu.op_class::SimdCmp                      204      0.00%     59.39% # Class of executed instruction
system.cpu.op_class::SimdCvt                   180752      0.14%     59.53% # Class of executed instruction
system.cpu.op_class::SimdMisc                  401212      0.31%     59.84% # Class of executed instruction
system.cpu.op_class::SimdMult                       0      0.00%     59.84% # Class of executed instruction
system.cpu.op_class::SimdMultAcc                    0      0.00%     59.84% # Class of executed instruction
system.cpu.op_class::SimdShift                    110      0.00%     59.84% # Class of executed instruction
system.cpu.op_class::SimdShiftAcc                   0      0.00%     59.84% # Class of executed instruction
system.cpu.op_class::SimdDiv                        0      0.00%     59.84% # Class of executed instruction
system.cpu.op_class::SimdSqrt                       0      0.00%     59.84% # Class of executed instruction
system.cpu.op_class::SimdFloatAdd              339760      0.26%     60.10% # Class of executed instruction
system.cpu.op_class::SimdFloatAlu                   0      0.00%     60.10% # Class of executed instruction
system.cpu.op_class::SimdFloatCmp                   0      0.00%     60.10% # Class of executed instruction
system.cpu.op_class::SimdFloatCvt              545700      0.42%     60.52% # Class of executed instruction
system.cpu.op_class::SimdFloatDiv               63423      0.05%     60.57% # Class of executed instruction
system.cpu.op_class::SimdFloatMisc                  0      0.00%     60.57% # Class of executed instruction
system.cpu.op_class::SimdFloatMult              52411      0.04%     60.61% # Class of executed instruction
system.cpu.op_class::SimdFloatMultAcc               0      0.00%     60.61% # Class of executed instruction
system.cpu.op_class::SimdFloatSqrt                  0      0.00%     60.61% # Class of executed instruction
system.cpu.op_class::SimdReduceAdd                  0      0.00%     60.61% # Class of executed instruction
system.cpu.op_class::SimdReduceAlu                  0      0.00%     60.61% # Class of executed instruction
system.cpu.op_class::SimdReduceCmp                  0      0.00%     60.61% # Class of executed instruction
system.cpu.op_class::SimdFloatReduceAdd             0      0.00%     60.61% # Class of executed instruction
system.cpu.op_class::SimdFloatReduceCmp             0      0.00%     60.61% # Class of executed instruction
system.cpu.op_class::SimdAes                        0      0.00%     60.61% # Class of executed instruction
system.cpu.op_class::SimdAesMix                     0      0.00%     60.61% # Class of executed instruction
system.cpu.op_class::SimdSha1Hash                   0      0.00%     60.61% # Class of executed instruction
system.cpu.op_class::SimdSha1Hash2                  0      0.00%     60.61% # Class of executed instruction
system.cpu.op_class::SimdSha256Hash                 0      0.00%     60.61% # Class of executed instruction
system.cpu.op_class::SimdSha256Hash2                0      0.00%     60.61% # Class of executed instruction
system.cpu.op_class::SimdShaSigma2                  0      0.00%     60.61% # Class of executed instruction
system.cpu.op_class::SimdShaSigma3                  0      0.00%     60.61% # Class of executed instruction
system.cpu.op_class::SimdPredAlu                    0      0.00%     60.61% # Class of executed instruction
system.cpu.op_class::MemRead                 42319781     32.67%     93.28% # Class of executed instruction
system.cpu.op_class::MemWrite                 6838372      5.28%     98.56% # Class of executed instruction
system.cpu.op_class::FloatMemRead             1483575      1.15%     99.71% # Class of executed instruction
system.cpu.op_class::FloatMemWrite             379316      0.29%    100.00% # Class of executed instruction
system.cpu.op_class::IprAccess                      0      0.00%    100.00% # Class of executed instruction
system.cpu.op_class::InstPrefetch                   0      0.00%    100.00% # Class of executed instruction
system.cpu.op_class::total                  129528817                       # Class of executed instruction
system.cpu.pwrStateResidencyTicks::ON    191772313500                       # Cumulative time (in ticks) in various power states
system.cpu.workload.numSyscalls                    34                       # Number of system calls
system.cpu_clk_domain.clock                       500                       # Clock period in ticks
system.cpu_voltage_domain.voltage                   1                       # Voltage in Volts
system.l2.CleanEvict_mshr_miss_rate::.writebacks          inf                       # mshr miss rate for CleanEvict accesses
system.l2.CleanEvict_mshr_miss_rate::total          inf                       # mshr miss rate for CleanEvict accesses
system.l2.CleanEvict_mshr_misses::.writebacks           39                       # number of CleanEvict MSHR misses
system.l2.CleanEvict_mshr_misses::total            39                       # number of CleanEvict MSHR misses
system.l2.ReadCleanReq_accesses::.cpu.inst         1346                       # number of ReadCleanReq accesses(hits+misses)
system.l2.ReadCleanReq_accesses::total           1346                       # number of ReadCleanReq accesses(hits+misses)
system.l2.ReadCleanReq_avg_miss_latency::.cpu.inst 90802.996255                       # average ReadCleanReq miss latency
system.l2.ReadCleanReq_avg_miss_latency::total 90802.996255                       # average ReadCleanReq miss latency
system.l2.ReadCleanReq_avg_mshr_miss_latency::.cpu.inst 80802.996255                       # average ReadCleanReq mshr miss latency
system.l2.ReadCleanReq_avg_mshr_miss_latency::total 80802.996255                       # average ReadCleanReq mshr miss latency
system.l2.ReadCleanReq_hits::.cpu.inst             11                       # number of ReadCleanReq hits
system.l2.ReadCleanReq_hits::total                 11                       # number of ReadCleanReq hits
system.l2.ReadCleanReq_miss_latency::.cpu.inst    121222000                       # number of ReadCleanReq miss cycles
system.l2.ReadCleanReq_miss_latency::total    121222000                       # number of ReadCleanReq miss cycles
system.l2.ReadCleanReq_miss_rate::.cpu.inst     0.991828                       # miss rate for ReadCleanReq accesses
system.l2.ReadCleanReq_miss_rate::total      0.991828                       # miss rate for ReadCleanReq accesses
system.l2.ReadCleanReq_misses::.cpu.inst         1335                       # number of ReadCleanReq misses
system.l2.ReadCleanReq_misses::total             1335                       # number of ReadCleanReq misses
system.l2.ReadCleanReq_mshr_miss_latency::.cpu.inst    107872000                       # number of ReadCleanReq MSHR miss cycles
system.l2.ReadCleanReq_mshr_miss_latency::total    107872000                       # number of ReadCleanReq MSHR miss cycles
system.l2.ReadCleanReq_mshr_miss_rate::.cpu.inst     0.991828                       # mshr miss rate for ReadCleanReq accesses
system.l2.ReadCleanReq_mshr_miss_rate::total     0.991828                       # mshr miss rate for ReadCleanReq accesses
system.l2.ReadCleanReq_mshr_misses::.cpu.inst         1335                       # number of ReadCleanReq MSHR misses
system.l2.ReadCleanReq_mshr_misses::total         1335                       # number of ReadCleanReq MSHR misses
system.l2.ReadExReq_accesses::.cpu.data         68978                       # number of ReadExReq accesses(hits+misses)
system.l2.ReadExReq_accesses::total             68978                       # number of ReadExReq accesses(hits+misses)
system.l2.ReadExReq_avg_miss_latency::.cpu.data 95937.879226                       # average ReadExReq miss latency
system.l2.ReadExReq_avg_miss_latency::total 95937.879226                       # average ReadExReq miss latency
system.l2.ReadExReq_avg_mshr_miss_latency::.cpu.data 85937.879226                       # average ReadExReq mshr miss latency
system.l2.ReadExReq_avg_mshr_miss_latency::total 85937.879226                       # average ReadExReq mshr miss latency
system.l2.ReadExReq_hits::.cpu.data             65517                       # number of ReadExReq hits
system.l2.ReadExReq_hits::total                 65517                       # number of ReadExReq hits
system.l2.ReadExReq_miss_latency::.cpu.data    332041000                       # number of ReadExReq miss cycles
system.l2.ReadExReq_miss_latency::total     332041000                       # number of ReadExReq miss cycles
system.l2.ReadExReq_miss_rate::.cpu.data     0.050175                       # miss rate for ReadExReq accesses
system.l2.ReadExReq_miss_rate::total         0.050175                       # miss rate for ReadExReq accesses
system.l2.ReadExReq_misses::.cpu.data            3461                       # number of ReadExReq misses
system.l2.ReadExReq_misses::total                3461                       # number of ReadExReq misses
system.l2.ReadExReq_mshr_miss_latency::.cpu.data    297431000                       # number of ReadExReq MSHR miss cycles
system.l2.ReadExReq_mshr_miss_latency::total    297431000                       # number of ReadExReq MSHR miss cycles
system.l2.ReadExReq_mshr_miss_rate::.cpu.data     0.050175                       # mshr miss rate for ReadExReq accesses
system.l2.ReadExReq_mshr_miss_rate::total     0.050175                       # mshr miss rate for ReadExReq accesses
system.l2.ReadExReq_mshr_misses::.cpu.data         3461                       # number of ReadExReq MSHR misses
system.l2.ReadExReq_mshr_misses::total           3461                       # number of ReadExReq MSHR misses
system.l2.ReadSharedReq_accesses::.cpu.data        25999                       # number of ReadSharedReq accesses(hits+misses)
system.l2.ReadSharedReq_accesses::total         25999                       # number of ReadSharedReq accesses(hits+misses)
system.l2.ReadSharedReq_avg_miss_latency::.cpu.data 98682.423858                       # average ReadSharedReq miss latency
system.l2.ReadSharedReq_avg_miss_latency::total 98682.423858                       # average ReadSharedReq miss latency
system.l2.ReadSharedReq_avg_mshr_miss_latency::.cpu.data 88682.423858                       # average ReadSharedReq mshr miss latency
system.l2.ReadSharedReq_avg_mshr_miss_latency::total 88682.423858                       # average ReadSharedReq mshr miss latency
system.l2.ReadSharedReq_hits::.cpu.data         24423                       # number of ReadSharedReq hits
system.l2.ReadSharedReq_hits::total             24423                       # number of ReadSharedReq hits
system.l2.ReadSharedReq_miss_latency::.cpu.data    155523500                       # number of ReadSharedReq miss cycles
system.l2.ReadSharedReq_miss_latency::total    155523500                       # number of ReadSharedReq miss cycles
system.l2.ReadSharedReq_miss_rate::.cpu.data     0.060618                       # miss rate for ReadSharedReq accesses
system.l2.ReadSharedReq_miss_rate::total     0.060618                       # miss rate for ReadSharedReq accesses
system.l2.ReadSharedReq_misses::.cpu.data         1576                       # number of ReadSharedReq misses
system.l2.ReadSharedReq_misses::total            1576                       # number of ReadSharedReq misses
system.l2.ReadSharedReq_mshr_miss_latency::.cpu.data    139763500                       # number of ReadSharedReq MSHR miss cycles
system.l2.ReadSharedReq_mshr_miss_latency::total    139763500                       # number of ReadSharedReq MSHR miss cycles
system.l2.ReadSharedReq_mshr_miss_rate::.cpu.data     0.060618                       # mshr miss rate for ReadSharedReq accesses
system.l2.ReadSharedReq_mshr_miss_rate::total     0.060618                       # mshr miss rate for ReadSharedReq accesses
system.l2.ReadSharedReq_mshr_misses::.cpu.data         1576                       # number of ReadSharedReq MSHR misses
system.l2.ReadSharedReq_mshr_misses::total         1576                       # number of ReadSharedReq MSHR misses
system.l2.WritebackClean_accesses::.writebacks          167                       # number of WritebackClean accesses(hits+misses)
system.l2.WritebackClean_accesses::total          167                       # number of WritebackClean accesses(hits+misses)
system.l2.WritebackClean_hits::.writebacks          167                       # number of WritebackClean hits
system.l2.WritebackClean_hits::total              167                       # number of WritebackClean hits
system.l2.WritebackDirty_accesses::.writebacks        92447                       # number of WritebackDirty accesses(hits+misses)
system.l2.WritebackDirty_accesses::total        92447                       # number of WritebackDirty accesses(hits+misses)
system.l2.WritebackDirty_hits::.writebacks        92447                       # number of WritebackDirty hits
system.l2.WritebackDirty_hits::total            92447                       # number of WritebackDirty hits
system.l2.avg_blocked_cycles::no_mshrs            nan                       # average number of cycles each access was blocked
system.l2.avg_blocked_cycles::no_targets          nan                       # average number of cycles each access was blocked
system.l2.blocked::no_mshrs                         0                       # number of cycles access was blocked
system.l2.blocked::no_targets                       0                       # number of cycles access was blocked
system.l2.blocked_cycles::no_mshrs                  0                       # number of cycles access was blocked
system.l2.blocked_cycles::no_targets                0                       # number of cycles access was blocked
system.l2.demand_accesses::.cpu.inst             1346                       # number of demand (read+write) accesses
system.l2.demand_accesses::.cpu.data            94977                       # number of demand (read+write) accesses
system.l2.demand_accesses::total                96323                       # number of demand (read+write) accesses
system.l2.demand_avg_miss_latency::.cpu.inst 90802.996255                       # average overall miss latency
system.l2.demand_avg_miss_latency::.cpu.data 96796.605122                       # average overall miss latency
system.l2.demand_avg_miss_latency::total 95540.881984                       # average overall miss latency
system.l2.demand_avg_mshr_miss_latency::.cpu.inst 80802.996255                       # average overall mshr miss latency
system.l2.demand_avg_mshr_miss_latency::.cpu.data 86796.605122                       # average overall mshr miss latency
system.l2.demand_avg_mshr_miss_latency::total 85540.881984                       # average overall mshr miss latency
system.l2.demand_hits::.cpu.inst                   11                       # number of demand (read+write) hits
system.l2.demand_hits::.cpu.data                89940                       # number of demand (read+write) hits
system.l2.demand_hits::total                    89951                       # number of demand (read+write) hits
system.l2.demand_miss_latency::.cpu.inst    121222000                       # number of demand (read+write) miss cycles
system.l2.demand_miss_latency::.cpu.data    487564500                       # number of demand (read+write) miss cycles
system.l2.demand_miss_latency::total        608786500                       # number of demand (read+write) miss cycles
system.l2.demand_miss_rate::.cpu.inst        0.991828                       # miss rate for demand accesses
system.l2.demand_miss_rate::.cpu.data        0.053034                       # miss rate for demand accesses
system.l2.demand_miss_rate::total            0.066152                       # miss rate for demand accesses
system.l2.demand_misses::.cpu.inst               1335                       # number of demand (read+write) misses
system.l2.demand_misses::.cpu.data               5037                       # number of demand (read+write) misses
system.l2.demand_misses::total                   6372                       # number of demand (read+write) misses
system.l2.demand_mshr_miss_latency::.cpu.inst    107872000                       # number of demand (read+write) MSHR miss cycles
system.l2.demand_mshr_miss_latency::.cpu.data    437194500                       # number of demand (read+write) MSHR miss cycles
system.l2.demand_mshr_miss_latency::total    545066500                       # number of demand (read+write) MSHR miss cycles
system.l2.demand_mshr_miss_rate::.cpu.inst     0.991828                       # mshr miss rate for demand accesses
system.l2.demand_mshr_miss_rate::.cpu.data     0.053034                       # mshr miss rate for demand accesses
system.l2.demand_mshr_miss_rate::total       0.066152                       # mshr miss rate for demand accesses
system.l2.demand_mshr_misses::.cpu.inst          1335                       # number of demand (read+write) MSHR misses
system.l2.demand_mshr_misses::.cpu.data          5037                       # number of demand (read+write) MSHR misses
system.l2.demand_mshr_misses::total              6372                       # number of demand (read+write) MSHR misses
system.l2.overall_accesses::.cpu.inst            1346                       # number of overall (read+write) accesses
system.l2.overall_accesses::.cpu.data           94977                       # number of overall (read+write) accesses
system.l2.overall_accesses::total               96323                       # number of overall (read+write) accesses
system.l2.overall_avg_miss_latency::.cpu.inst 90802.996255                       # average overall miss latency
system.l2.overall_avg_miss_latency::.cpu.data 96796.605122                       # average overall miss latency
system.l2.overall_avg_miss_latency::total 95540.881984                       # average overall miss latency
system.l2.overall_avg_mshr_miss_latency::.cpu.inst 80802.996255                       # average overall mshr miss latency
system.l2.overall_avg_mshr_miss_latency::.cpu.data 86796.605122                       # average overall mshr miss latency
system.l2.overall_avg_mshr_miss_latency::total 85540.881984                       # average overall mshr miss latency
system.l2.overall_hits::.cpu.inst                  11                       # number of overall hits
system.l2.overall_hits::.cpu.data               89940                       # number of overall hits
system.l2.overall_hits::total                   89951                       # number of overall hits
system.l2.overall_miss_latency::.cpu.inst    121222000                       # number of overall miss cycles
system.l2.overall_miss_latency::.cpu.data    487564500                       # number of overall miss cycles
system.l2.overall_miss_latency::total       608786500                       # number of overall miss cycles
system.l2.overall_miss_rate::.cpu.inst       0.991828                       # miss rate for overall accesses
system.l2.overall_miss_rate::.cpu.data       0.053034                       # miss rate for overall accesses
system.l2.overall_miss_rate::total           0.066152                       # miss rate for overall accesses
system.l2.overall_misses::.cpu.inst              1335                       # number of overall misses
system.l2.overall_misses::.cpu.data              5037                       # number of overall misses
system.l2.overall_misses::total                  6372                       # number of overall misses
system.l2.overall_mshr_miss_latency::.cpu.inst    107872000                       # number of overall MSHR miss cycles
system.l2.overall_mshr_miss_latency::.cpu.data    437194500                       # number of overall MSHR miss cycles
system.l2.overall_mshr_miss_latency::total    545066500                       # number of overall MSHR miss cycles
system.l2.overall_mshr_miss_rate::.cpu.inst     0.991828                       # mshr miss rate for overall accesses
system.l2.overall_mshr_miss_rate::.cpu.data     0.053034                       # mshr miss rate for overall accesses
system.l2.overall_mshr_miss_rate::total      0.066152                       # mshr miss rate for overall accesses
system.l2.overall_mshr_misses::.cpu.inst         1335                       # number of overall MSHR misses
system.l2.overall_mshr_misses::.cpu.data         5037                       # number of overall MSHR misses
system.l2.overall_mshr_misses::total             6372                       # number of overall MSHR misses
system.l2.pwrStateResidencyTicks::UNDEFINED 191772313500                       # Cumulative time (in ticks) in various power states
system.l2.replacements                            427                       # number of replacements
system.l2.tags.age_task_id_blocks_1024::4         6020                       # Occupied blocks per task id
system.l2.tags.avg_refs                     29.533582                       # Average number of references to valid blocks.
system.l2.tags.data_accesses                   196889                       # Number of data accesses
system.l2.tags.occ_blocks::.writebacks      60.293735                       # Average occupied blocks per requestor
system.l2.tags.occ_blocks::.cpu.inst      1081.384485                       # Average occupied blocks per requestor
system.l2.tags.occ_blocks::.cpu.data      3966.217233                       # Average occupied blocks per requestor
system.l2.tags.occ_percent::.writebacks      0.003680                       # Average percentage of cache occupancy
system.l2.tags.occ_percent::.cpu.inst        0.066002                       # Average percentage of cache occupancy
system.l2.tags.occ_percent::.cpu.data        0.242079                       # Average percentage of cache occupancy
system.l2.tags.occ_percent::total            0.311761                       # Average percentage of cache occupancy
system.l2.tags.occ_task_id_blocks::1024          6020                       # Occupied blocks per task id
system.l2.tags.occ_task_id_percent::1024     0.367432                       # Percentage of cache occupancy per task id
system.l2.tags.pwrStateResidencyTicks::UNDEFINED 191772313500                       # Cumulative time (in ticks) in various power states
system.l2.tags.sampled_refs                      6447                       # Sample count of references to valid blocks.
system.l2.tags.tag_accesses                    196889                       # Number of tag accesses
system.l2.tags.tagsinuse                  5107.895453                       # Cycle average of tags in use
system.l2.tags.total_refs                      190403                       # Total number of references to valid blocks.
system.l2.tags.warmup_cycle                     77000                       # Cycle when the warmup percentage was hit.
system.l2.writebacks::.writebacks                  11                       # number of writebacks
system.l2.writebacks::total                        11                       # number of writebacks
system.mem_ctrls.avgBusLat                    5000.00                       # Average bus latency per DRAM burst
system.mem_ctrls.avgGap                   27243162.38                       # Average gap between requests
system.mem_ctrls.avgMemAccLat                44674.91                       # Average memory access latency per DRAM burst
system.mem_ctrls.avgPriority_.writebacks::samples        11.00                       # Average QoS priority value for accepted requests
system.mem_ctrls.avgPriority_.cpu.inst::samples      1335.00                       # Average QoS priority value for accepted requests
system.mem_ctrls.avgPriority_.cpu.data::samples      5031.00                       # Average QoS priority value for accepted requests
system.mem_ctrls.avgQLat                     25924.91                       # Average queueing delay per DRAM burst
system.mem_ctrls.avgRdBW                         2.12                       # Average DRAM read bandwidth in MiByte/s
system.mem_ctrls.avgRdBWSys                      2.13                       # Average system read bandwidth in MiByte/s
system.mem_ctrls.avgRdQLen                       1.04                       # Average read queue length when enqueuing
system.mem_ctrls.avgWrBW                         0.00                       # Average achieved write bandwidth in MiByte/s
system.mem_ctrls.avgWrBWSys                      0.00                       # Average system write bandwidth in MiByte/s
system.mem_ctrls.avgWrQLen                      10.51                       # Average write queue length when enqueuing
system.mem_ctrls.busUtil                         0.02                       # Data bus utilization in percentage
system.mem_ctrls.busUtilRead                     0.02                       # Data bus utilization in percentage for reads
system.mem_ctrls.busUtilWrite                    0.00                       # Data bus utilization in percentage for writes
system.mem_ctrls.bw_inst_read::.cpu.inst       445528                       # Instruction read bandwidth from this memory (bytes/s)
system.mem_ctrls.bw_inst_read::total           445528                       # Instruction read bandwidth from this memory (bytes/s)
system.mem_ctrls.bw_read::.cpu.inst            445528                       # Total read bandwidth from this memory (bytes/s)
system.mem_ctrls.bw_read::.cpu.data           1680993                       # Total read bandwidth from this memory (bytes/s)
system.mem_ctrls.bw_read::total               2126522                       # Total read bandwidth from this memory (bytes/s)
system.mem_ctrls.bw_total::.writebacks           3671                       # Total bandwidth to/from this memory (bytes/s)
system.mem_ctrls.bw_total::.cpu.inst           445528                       # Total bandwidth to/from this memory (bytes/s)
system.mem_ctrls.bw_total::.cpu.data          1680993                       # Total bandwidth to/from this memory (bytes/s)
system.mem_ctrls.bw_total::total              2130193                       # Total bandwidth to/from this memory (bytes/s)
system.mem_ctrls.bw_write::.writebacks           3671                       # Write bandwidth from this memory (bytes/s)
system.mem_ctrls.bw_write::total                 3671                       # Write bandwidth from this memory (bytes/s)
system.mem_ctrls.bytesPerActivate::samples         2371                       # Bytes accessed per row activation
system.mem_ctrls.bytesPerActivate::mean    171.836356                       # Bytes accessed per row activation
system.mem_ctrls.bytesPerActivate::gmean    99.541964                       # Bytes accessed per row activation
system.mem_ctrls.bytesPerActivate::stdev   257.848692                       # Bytes accessed per row activation
system.mem_ctrls.bytesPerActivate::0-127         1753     73.94%     73.94% # Bytes accessed per row activation
system.mem_ctrls.bytesPerActivate::128-255          245     10.33%     84.27% # Bytes accessed per row activation
system.mem_ctrls.bytesPerActivate::256-383           79      3.33%     87.60% # Bytes accessed per row activation
system.mem_ctrls.bytesPerActivate::384-511           62      2.61%     90.22% # Bytes accessed per row activation
system.mem_ctrls.bytesPerActivate::512-639           23      0.97%     91.19% # Bytes accessed per row activation
system.mem_ctrls.bytesPerActivate::640-767           23      0.97%     92.16% # Bytes accessed per row activation
system.mem_ctrls.bytesPerActivate::768-895           27      1.14%     93.29% # Bytes accessed per row activation
system.mem_ctrls.bytesPerActivate::896-1023           18      0.76%     94.05% # Bytes accessed per row activation
system.mem_ctrls.bytesPerActivate::1024-1151          141      5.95%    100.00% # Bytes accessed per row activation
system.mem_ctrls.bytesPerActivate::total         2371                       # Bytes accessed per row activation
system.mem_ctrls.bytesReadDRAM                 407424                       # Total number of bytes read from DRAM
system.mem_ctrls.bytesReadSys                  407808                       # Total read bytes from the system interface side
system.mem_ctrls.bytesReadWrQ                     384                       # Total number of bytes read from write queue
system.mem_ctrls.bytesWritten                       0                       # Total number of bytes written to DRAM
system.mem_ctrls.bytesWrittenSys                  704                       # Total written bytes from the system interface side
system.mem_ctrls.bytes_inst_read::.cpu.inst        85440                       # Number of instructions bytes read from this memory
system.mem_ctrls.bytes_inst_read::total         85440                       # Number of instructions bytes read from this memory
system.mem_ctrls.bytes_read::.cpu.inst          85440                       # Number of bytes read from this memory
system.mem_ctrls.bytes_read::.cpu.data         322368                       # Number of bytes read from this memory
system.mem_ctrls.bytes_read::total             407808                       # Number of bytes read from this memory
system.mem_ctrls.bytes_written::.writebacks          704                       # Number of bytes written to this memory
system.mem_ctrls.bytes_written::total             704                       # Number of bytes written to this memory
system.mem_ctrls.masterReadAccesses::.cpu.inst         1335                       # Per-master read serviced memory accesses
system.mem_ctrls.masterReadAccesses::.cpu.data         5037                       # Per-master read serviced memory accesses
system.mem_ctrls.masterReadAvgLat::.cpu.inst     39977.53                       # Per-master read average memory access latency
system.mem_ctrls.masterReadAvgLat::.cpu.data     45866.69                       # Per-master read average memory access latency
system.mem_ctrls.masterReadBytes::.cpu.inst        85440                       # Per-master bytes read from memory
system.mem_ctrls.masterReadBytes::.cpu.data       321984                       # Per-master bytes read from memory
system.mem_ctrls.masterReadRate::.cpu.inst 445528.337436467293                       # Per-master bytes read from memory rate (Bytes/sec)
system.mem_ctrls.masterReadRate::.cpu.data 1678991.060406642035                       # Per-master bytes read from memory rate (Bytes/sec)
system.mem_ctrls.masterReadTotalLat::.cpu.inst     53370000                       # Per-master read total memory access latency
system.mem_ctrls.masterReadTotalLat::.cpu.data    231030500                       # Per-master read total memory access latency
system.mem_ctrls.masterWriteAccesses::.writebacks           11                       # Per-master write serviced memory accesses
system.mem_ctrls.masterWriteAvgLat::.writebacks         0.00                       # Per-master write average memory access latency
system.mem_ctrls.mergedWrBursts                     0                       # Number of DRAM write bursts merged with an existing one
system.mem_ctrls.neitherReadNorWriteReqs            0                       # Number of requests that are neither read nor write
system.mem_ctrls.numRdRetry                         0                       # Number of times read queue was full causing retry
system.mem_ctrls.numReadWriteTurnArounds            0                       # Number of turnarounds from READ to WRITE
system.mem_ctrls.numStayReadState               14074                       # Number of times bus staying in READ state
system.mem_ctrls.numStayWriteState                  0                       # Number of times bus staying in WRITE state
system.mem_ctrls.numWrRetry                         0                       # Number of times write queue was full causing retry
system.mem_ctrls.numWriteReadTurnArounds            0                       # Number of turnarounds from WRITE to READ
system.mem_ctrls.num_reads::.cpu.inst            1335                       # Number of read requests responded to by this memory
system.mem_ctrls.num_reads::.cpu.data            5037                       # Number of read requests responded to by this memory
system.mem_ctrls.num_reads::total                6372                       # Number of read requests responded to by this memory
system.mem_ctrls.num_writes::.writebacks           11                       # Number of write requests responded to by this memory
system.mem_ctrls.num_writes::total                 11                       # Number of write requests responded to by this memory
system.mem_ctrls.pageHitRate                    62.65                       # Row buffer hit rate, read and write combined
system.mem_ctrls.peakBW                      12800.00                       # Theoretical peak bandwidth in MiByte/s
system.mem_ctrls.perBankRdBursts::0               314                       # Per bank write bursts
system.mem_ctrls.perBankRdBursts::1               346                       # Per bank write bursts
system.mem_ctrls.perBankRdBursts::2               432                       # Per bank write bursts
system.mem_ctrls.perBankRdBursts::3               319                       # Per bank write bursts
system.mem_ctrls.perBankRdBursts::4               470                       # Per bank write bursts
system.mem_ctrls.perBankRdBursts::5               408                       # Per bank write bursts
system.mem_ctrls.perBankRdBursts::6               340                       # Per bank write bursts
system.mem_ctrls.perBankRdBursts::7               404                       # Per bank write bursts
system.mem_ctrls.perBankRdBursts::8               519                       # Per bank write bursts
system.mem_ctrls.perBankRdBursts::9               513                       # Per bank write bursts
system.mem_ctrls.perBankRdBursts::10              520                       # Per bank write bursts
system.mem_ctrls.perBankRdBursts::11              467                       # Per bank write bursts
system.mem_ctrls.perBankRdBursts::12              365                       # Per bank write bursts
system.mem_ctrls.perBankRdBursts::13              321                       # Per bank write bursts
system.mem_ctrls.perBankRdBursts::14              303                       # Per bank write bursts
system.mem_ctrls.perBankRdBursts::15              325                       # Per bank write bursts
system.mem_ctrls.perBankWrBursts::0                 0                       # Per bank write bursts
system.mem_ctrls.perBankWrBursts::1                 0                       # Per bank write bursts
system.mem_ctrls.perBankWrBursts::2                 0                       # Per bank write bursts
system.mem_ctrls.perBankWrBursts::3                 0                       # Per bank write bursts
system.mem_ctrls.perBankWrBursts::4                 0                       # Per bank write bursts
system.mem_ctrls.perBankWrBursts::5                 0                       # Per bank write bursts
system.mem_ctrls.perBankWrBursts::6                 0                       # Per bank write bursts
system.mem_ctrls.perBankWrBursts::7                 0                       # Per bank write bursts
system.mem_ctrls.perBankWrBursts::8                 0                       # Per bank write bursts
system.mem_ctrls.perBankWrBursts::9                 0                       # Per bank write bursts
system.mem_ctrls.perBankWrBursts::10                0                       # Per bank write bursts
system.mem_ctrls.perBankWrBursts::11                0                       # Per bank write bursts
system.mem_ctrls.perBankWrBursts::12                0                       # Per bank write bursts
system.mem_ctrls.perBankWrBursts::13                0                       # Per bank write bursts
system.mem_ctrls.perBankWrBursts::14                0                       # Per bank write bursts
system.mem_ctrls.perBankWrBursts::15                0                       # Per bank write bursts
system.mem_ctrls.priorityMaxLatency      0.000001100750                       # per QoS priority maximum request to response latency (s)
system.mem_ctrls.priorityMinLatency      0.000000018750                       # per QoS priority minimum request to response latency (s)
system.mem_ctrls.pwrStateResidencyTicks::UNDEFINED 191772313500                       # Cumulative time (in ticks) in various power states
system.mem_ctrls.rdQLenPdf::0                    5871                       # What read queue length does an incoming req see
system.mem_ctrls.rdQLenPdf::1                     449                       # What read queue length does an incoming req see
system.mem_ctrls.rdQLenPdf::2                      36                       # What read queue length does an incoming req see
system.mem_ctrls.rdQLenPdf::3                      10                       # What read queue length does an incoming req see
system.mem_ctrls.rdQLenPdf::4                       0                       # What read queue length does an incoming req see
system.mem_ctrls.rdQLenPdf::5                       0                       # What read queue length does an incoming req see
system.mem_ctrls.rdQLenPdf::6                       0                       # What read queue length does an incoming req see
system.mem_ctrls.rdQLenPdf::7                       0                       # What read queue length does an incoming req see
system.mem_ctrls.rdQLenPdf::8                       0                       # What read queue length does an incoming req see
system.mem_ctrls.rdQLenPdf::9                       0                       # What read queue length does an incoming req see
system.mem_ctrls.rdQLenPdf::10                      0                       # What read queue length does an incoming req see
system.mem_ctrls.rdQLenPdf::11                      0                       # What read queue length does an incoming req see
system.mem_ctrls.rdQLenPdf::12                      0                       # What read queue length does an incoming req see
system.mem_ctrls.rdQLenPdf::13                      0                       # What read queue length does an incoming req see
system.mem_ctrls.rdQLenPdf::14                      0                       # What read queue length does an incoming req see
system.mem_ctrls.rdQLenPdf::15                      0                       # What read queue length does an incoming req see
system.mem_ctrls.rdQLenPdf::16                      0                       # What read queue length does an incoming req see
system.mem_ctrls.rdQLenPdf::17                      0                       # What read queue length does an incoming req see
system.mem_ctrls.rdQLenPdf::18                      0                       # What read queue length does an incoming req see
system.mem_ctrls.rdQLenPdf::19                      0                       # What read queue length does an incoming req see
system.mem_ctrls.rdQLenPdf::20                      0                       # What read queue length does an incoming req see
system.mem_ctrls.rdQLenPdf::21                      0                       # What read queue length does an incoming req see
system.mem_ctrls.rdQLenPdf::22                      0                       # What read queue length does an incoming req see
system.mem_ctrls.rdQLenPdf::23                      0                       # What read queue length does an incoming req see
system.mem_ctrls.rdQLenPdf::24                      0                       # What read queue length does an incoming req see
system.mem_ctrls.rdQLenPdf::25                      0                       # What read queue length does an incoming req see
system.mem_ctrls.rdQLenPdf::26                      0                       # What read queue length does an incoming req see
system.mem_ctrls.rdQLenPdf::27                      0                       # What read queue length does an incoming req see
system.mem_ctrls.rdQLenPdf::28                      0                       # What read queue length does an incoming req see
system.mem_ctrls.rdQLenPdf::29                      0                       # What read queue length does an incoming req see
system.mem_ctrls.rdQLenPdf::30                      0                       # What read queue length does an incoming req see
system.mem_ctrls.rdQLenPdf::31                      0                       # What read queue length does an incoming req see
system.mem_ctrls.readBursts                      6372                       # Number of DRAM read bursts, including those serviced by the write queue
system.mem_ctrls.readPktSize::0                     0                       # Read request sizes (log2)
system.mem_ctrls.readPktSize::1                     0                       # Read request sizes (log2)
system.mem_ctrls.readPktSize::2                     0                       # Read request sizes (log2)
system.mem_ctrls.readPktSize::3                     0                       # Read request sizes (log2)
system.mem_ctrls.readPktSize::4                     0                       # Read request sizes (log2)
system.mem_ctrls.readPktSize::5                     0                       # Read request sizes (log2)
system.mem_ctrls.readPktSize::6                  6372                       # Read request sizes (log2)
system.mem_ctrls.readReqs                        6372                       # Number of read requests accepted
system.mem_ctrls.readRowHitRate                 62.76                       # Row buffer hit rate for reads
system.mem_ctrls.readRowHits                     3995                       # Number of row buffer hits during reads
system.mem_ctrls.servicedByWrQ                      6                       # Number of DRAM read bursts serviced by the write queue
system.mem_ctrls.totBusLat                   31830000                       # Total ticks spent in databus transfers
system.mem_ctrls.totGap                  173893105500                       # Total gap between requests
system.mem_ctrls.totMemAccLat               284400500                       # Total ticks spent from burst creation until serviced by the DRAM
system.mem_ctrls.totQLat                    165038000                       # Total ticks spent queuing
system.mem_ctrls.wrQLenPdf::0                       1                       # What write queue length does an incoming req see
system.mem_ctrls.wrQLenPdf::1                       1                       # What write queue length does an incoming req see
system.mem_ctrls.wrQLenPdf::2                       1                       # What write queue length does an incoming req see
system.mem_ctrls.wrQLenPdf::3                       1                       # What write queue length does an incoming req see
system.mem_ctrls.wrQLenPdf::4                       1                       # What write queue length does an incoming req see
system.mem_ctrls.wrQLenPdf::5                       1                       # What write queue length does an incoming req see
system.mem_ctrls.wrQLenPdf::6                       1                       # What write queue length does an incoming req see
system.mem_ctrls.wrQLenPdf::7                       1                       # What write queue length does an incoming req see
system.mem_ctrls.wrQLenPdf::8                       1                       # What write queue length does an incoming req see
[...]
system.mem_ctrls.wrQLenPdf::26                      0                       # What write queue length does an incoming req see
system.mem_ctrls.wrQLenPdf::27                      0                       # What write queue length does an incoming req see
system.mem_ctrls.wrQLenPdf::28                      0                       # What write queue length does an incoming req see
system.mem_ctrls.wrQLenPdf::29                      0                       # What write queue length does an incoming req see
system.mem_ctrls.wrQLenPdf::30                      0                       # What write queue length does an incoming req see
system.mem_ctrls.wrQLenPdf::31                      0                       # What write queue length does an incoming req see
system.mem_ctrls.wrQLenPdf::32                      0                       # What write queue length does an incoming req see
system.mem_ctrls.wrQLenPdf::33                      0                       # What write queue length does an incoming req see
system.mem_ctrls.wrQLenPdf::34                      0                       # What write queue length does an incoming req see
system.mem_ctrls.wrQLenPdf::35                      0                       # What write queue length does an incoming req see
system.mem_ctrls.wrQLenPdf::36                      0                       # What write queue length does an incoming req see
system.mem_ctrls.wrQLenPdf::37                      0                       # What write queue length does an incoming req see
system.mem_ctrls.wrQLenPdf::38                      0                       # What write queue length does an incoming req see
system.mem_ctrls.wrQLenPdf::39                      0                       # What write queue length does an incoming req see
system.mem_ctrls.wrQLenPdf::40                      0                       # What write queue length does an incoming req see
system.mem_ctrls.wrQLenPdf::41                      0                       # What write queue length does an incoming req see
system.mem_ctrls.wrQLenPdf::42                      0                       # What write queue length does an incoming req see
system.mem_ctrls.wrQLenPdf::43                      0                       # What write queue length does an incoming req see
system.mem_ctrls.wrQLenPdf::44                      0                       # What write queue length does an incoming req see
system.mem_ctrls.wrQLenPdf::45                      0                       # What write queue length does an incoming req see
system.mem_ctrls.wrQLenPdf::46                      0                       # What write queue length does an incoming req see
system.mem_ctrls.wrQLenPdf::47                      0                       # What write queue length does an incoming req see
system.mem_ctrls.wrQLenPdf::48                      0                       # What write queue length does an incoming req see
system.mem_ctrls.wrQLenPdf::49                      0                       # What write queue length does an incoming req see
system.mem_ctrls.wrQLenPdf::50                      0                       # What write queue length does an incoming req see
system.mem_ctrls.wrQLenPdf::51                      0                       # What write queue length does an incoming req see
system.mem_ctrls.wrQLenPdf::52                      0                       # What write queue length does an incoming req see
system.mem_ctrls.wrQLenPdf::53                      0                       # What write queue length does an incoming req see
system.mem_ctrls.wrQLenPdf::54                      0                       # What write queue length does an incoming req see
system.mem_ctrls.wrQLenPdf::55                      0                       # What write queue length does an incoming req see
system.mem_ctrls.wrQLenPdf::56                      0                       # What write queue length does an incoming req see
system.mem_ctrls.wrQLenPdf::57                      0                       # What write queue length does an incoming req see
system.mem_ctrls.wrQLenPdf::58                      0                       # What write queue length does an incoming req see
system.mem_ctrls.wrQLenPdf::59                      0                       # What write queue length does an incoming req see
system.mem_ctrls.wrQLenPdf::60                      0                       # What write queue length does an incoming req see
system.mem_ctrls.wrQLenPdf::61                      0                       # What write queue length does an incoming req see
system.mem_ctrls.wrQLenPdf::62                      0                       # What write queue length does an incoming req see
system.mem_ctrls.wrQLenPdf::63                      0                       # What write queue length does an incoming req see
system.mem_ctrls.writeBursts                       11                       # Number of DRAM write bursts, including those merged in the write queue
system.mem_ctrls.writePktSize::0                    0                       # Write request sizes (log2)
system.mem_ctrls.writePktSize::1                    0                       # Write request sizes (log2)
system.mem_ctrls.writePktSize::2                    0                       # Write request sizes (log2)
system.mem_ctrls.writePktSize::3                    0                       # Write request sizes (log2)
system.mem_ctrls.writePktSize::4                    0                       # Write request sizes (log2)
system.mem_ctrls.writePktSize::5                    0                       # Write request sizes (log2)
system.mem_ctrls.writePktSize::6                   11                       # Write request sizes (log2)
system.mem_ctrls.writeReqs                         11                       # Number of write requests accepted
system.mem_ctrls.writeRowHitRate                 0.00                       # Row buffer hit rate for writes
system.mem_ctrls.writeRowHits                       0                       # Number of row buffer hits during writes
system.mem_ctrls_0.actBackEnergy            118090320                       # Energy for active background per rank (pJ)
system.mem_ctrls_0.actEnergy                  8396640                       # Energy for activate commands per rank (pJ)
system.mem_ctrls_0.actPowerDownEnergy      1852152870                       # Energy for active power-down per rank (pJ)
system.mem_ctrls_0.averagePower            248.185008                       # Core power per rank (mW)
system.mem_ctrls_0.memoryStateTime::IDLE     19433500                       # Time in different power states
system.mem_ctrls_0.memoryStateTime::REF     178100000                       # Time in different power states
system.mem_ctrls_0.memoryStateTime::SREF 186415484000                       # Time in different power states
system.mem_ctrls_0.memoryStateTime::PRE_PDN    997836000                       # Time in different power states
system.mem_ctrls_0.memoryStateTime::ACT      99598500                       # Time in different power states
system.mem_ctrls_0.memoryStateTime::ACT_PDN   4061861500                       # Time in different power states
system.mem_ctrls_0.preBackEnergy             14501760                       # Energy for precharge background per rank (pJ)
system.mem_ctrls_0.preEnergy                  4462920                       # Energy for precharge commands per rank (pJ)
system.mem_ctrls_0.prePowerDownEnergy       383163840                       # Energy for precharge power-down per rank (pJ)
system.mem_ctrls_0.readEnergy                21655620                       # Energy for read commands per rank (pJ)
system.mem_ctrls_0.refreshEnergy         421028400.000000                       # Energy for refresh commands per rank (pJ)
system.mem_ctrls_0.selfRefreshEnergy      44771321880                       # Energy for self refresh per rank (pJ)
system.mem_ctrls_0.totalEnergy            47595013080                       # Total energy per rank (pJ)
system.mem_ctrls_0.totalIdleTime         173610872250                       # Total Idle time Per DRAM Rank
system.mem_ctrls_0.writeEnergy                      0                       # Energy for write commands per rank (pJ)
system.mem_ctrls_1.actBackEnergy            115259700                       # Energy for active background per rank (pJ)
system.mem_ctrls_1.actEnergy                  8532300                       # Energy for activate commands per rank (pJ)
system.mem_ctrls_1.actPowerDownEnergy      1311541500                       # Energy for active power-down per rank (pJ)
system.mem_ctrls_1.averagePower            247.368313                       # Core power per rank (mW)
system.mem_ctrls_1.memoryStateTime::IDLE     16693000                       # Time in different power states
system.mem_ctrls_1.memoryStateTime::REF     168220000                       # Time in different power states
system.mem_ctrls_1.memoryStateTime::SREF 186714673500                       # Time in different power states
system.mem_ctrls_1.memoryStateTime::PRE_PDN   1893842750                       # Time in different power states
system.mem_ctrls_1.memoryStateTime::ACT     102897750                       # Time in different power states
system.mem_ctrls_1.memoryStateTime::ACT_PDN   2875986500                       # Time in different power states
system.mem_ctrls_1.preBackEnergy             13232160                       # Energy for precharge background per rank (pJ)
system.mem_ctrls_1.preEnergy                  4535025                       # Energy for precharge commands per rank (pJ)
system.mem_ctrls_1.prePowerDownEnergy       727299840                       # Energy for precharge power-down per rank (pJ)
system.mem_ctrls_1.readEnergy                23797620                       # Energy for read commands per rank (pJ)
system.mem_ctrls_1.refreshEnergy         397672080.000000                       # Energy for refresh commands per rank (pJ)
system.mem_ctrls_1.selfRefreshEnergy      44836425600                       # Energy for self refresh per rank (pJ)
system.mem_ctrls_1.totalEnergy            47438393595                       # Total energy per rank (pJ)
system.mem_ctrls_1.totalIdleTime         173613348250                       # Total Idle time Per DRAM Rank
system.mem_ctrls_1.writeEnergy                      0                       # Energy for write commands per rank (pJ)
system.membus.pkt_count_system.l2.mem_side::system.mem_ctrls.port        12881                       # Packet count per connected master and slave (bytes)
system.membus.pkt_count_system.l2.mem_side::total        12881                       # Packet count per connected master and slave (bytes)
system.membus.pkt_count::total                  12881                       # Packet count per connected master and slave (bytes)
system.membus.pkt_size_system.l2.mem_side::system.mem_ctrls.port       408512                       # Cumulative packet size per connected master and slave (bytes)
system.membus.pkt_size_system.l2.mem_side::total       408512                       # Cumulative packet size per connected master and slave (bytes)
system.membus.pkt_size::total                  408512                       # Cumulative packet size per connected master and slave (bytes)
system.membus.pwrStateResidencyTicks::UNDEFINED 191772313500                       # Cumulative time (in ticks) in various power states
system.membus.reqLayer2.occupancy             7047985                       # Layer occupancy (ticks)
system.membus.reqLayer2.utilization               0.0                       # Layer utilization (%)
system.membus.respLayer1.occupancy           33901000                       # Layer occupancy (ticks)
system.membus.respLayer1.utilization              0.0                       # Layer utilization (%)
system.membus.snoopTraffic                          0                       # Total snoop traffic (bytes)
system.membus.snoop_fanout::samples              6372                       # Request fanout histogram
system.membus.snoop_fanout::mean                    0                       # Request fanout histogram
system.membus.snoop_fanout::stdev                   0                       # Request fanout histogram
system.membus.snoop_fanout::underflows              0      0.00%      0.00% # Request fanout histogram
system.membus.snoop_fanout::0                    6372    100.00%    100.00% # Request fanout histogram
system.membus.snoop_fanout::1                       0      0.00%    100.00% # Request fanout histogram
system.membus.snoop_fanout::overflows               0      0.00%    100.00% # Request fanout histogram
system.membus.snoop_fanout::min_value               0                       # Request fanout histogram
system.membus.snoop_fanout::max_value               0                       # Request fanout histogram
system.membus.snoop_fanout::total                6372                       # Request fanout histogram
system.membus.snoop_filter.hit_multi_requests            0                       # Number of requests hitting in the snoop filter with multiple (>1) holders of the requested data.
system.membus.snoop_filter.hit_multi_snoops            0                       # Number of snoops hitting in the snoop filter with multiple (>1) holders of the requested data.
system.membus.snoop_filter.hit_single_requests          137                       # Number of requests hitting in the snoop filter with a single holder of the requested data.
system.membus.snoop_filter.hit_single_snoops            0                       # Number of snoops hitting in the snoop filter with a single holder of the requested data.
system.membus.snoop_filter.tot_requests          6509                       # Total number of requests made to the snoop filter.
system.membus.snoop_filter.tot_snoops               0                       # Total number of snoops made to the snoop filter.
system.membus.snoops                                0                       # Total snoops (count)
system.membus.trans_dist::ReadResp               2911                       # Transaction distribution
system.membus.trans_dist::WritebackDirty           11                       # Transaction distribution
system.membus.trans_dist::CleanEvict              126                       # Transaction distribution
system.membus.trans_dist::ReadExReq              3461                       # Transaction distribution
system.membus.trans_dist::ReadExResp             3461                       # Transaction distribution
system.membus.trans_dist::ReadSharedReq          2911                       # Transaction distribution
system.pwrStateResidencyTicks::UNDEFINED 191772313500                       # Cumulative time (in ticks) in various power states
system.tol2bus.pkt_count_system.cpu.icache.mem_side::system.l2.cpu_side         2859                       # Packet count per connected master and slave (bytes)
system.tol2bus.pkt_count_system.cpu.dcache.mem_side::system.l2.cpu_side       283907                       # Packet count per connected master and slave (bytes)
system.tol2bus.pkt_count::total                286766                       # Packet count per connected master and slave (bytes)
system.tol2bus.pkt_size_system.cpu.icache.mem_side::system.l2.cpu_side        96832                       # Cumulative packet size per connected master and slave (bytes)
system.tol2bus.pkt_size_system.cpu.dcache.mem_side::system.l2.cpu_side     11995136                       # Cumulative packet size per connected master and slave (bytes)
system.tol2bus.pkt_size::total               12091968                       # Cumulative packet size per connected master and slave (bytes)
system.tol2bus.pwrStateResidencyTicks::UNDEFINED 191772313500                       # Cumulative time (in ticks) in various power states
system.tol2bus.reqLayer0.occupancy          187835500                       # Layer occupancy (ticks)
system.tol2bus.reqLayer0.utilization              0.1                       # Layer utilization (%)
system.tol2bus.respLayer0.occupancy           2019000                       # Layer occupancy (ticks)
system.tol2bus.respLayer0.utilization             0.0                       # Layer utilization (%)
system.tol2bus.respLayer1.occupancy         142465500                       # Layer occupancy (ticks)
system.tol2bus.respLayer1.utilization             0.1                       # Layer utilization (%)
system.tol2bus.snoopTraffic                       704                       # Total snoop traffic (bytes)
system.tol2bus.snoop_fanout::samples            96750                       # Request fanout histogram
system.tol2bus.snoop_fanout::mean            0.003411                       # Request fanout histogram
system.tol2bus.snoop_fanout::stdev           0.058303                       # Request fanout histogram
system.tol2bus.snoop_fanout::underflows             0      0.00%      0.00% # Request fanout histogram
system.tol2bus.snoop_fanout::0                  96420     99.66%     99.66% # Request fanout histogram
system.tol2bus.snoop_fanout::1                    330      0.34%    100.00% # Request fanout histogram
system.tol2bus.snoop_fanout::2                      0      0.00%    100.00% # Request fanout histogram
system.tol2bus.snoop_fanout::3                      0      0.00%    100.00% # Request fanout histogram
system.tol2bus.snoop_fanout::4                      0      0.00%    100.00% # Request fanout histogram
system.tol2bus.snoop_fanout::overflows              0      0.00%    100.00% # Request fanout histogram
system.tol2bus.snoop_fanout::min_value              0                       # Request fanout histogram
system.tol2bus.snoop_fanout::max_value              1                       # Request fanout histogram
system.tol2bus.snoop_fanout::total              96750                       # Request fanout histogram
system.tol2bus.snoop_filter.hit_multi_requests            1                       # Number of requests hitting in the snoop filter with multiple (>1) holders of the requested data.
system.tol2bus.snoop_filter.hit_multi_snoops            0                       # Number of snoops hitting in the snoop filter with multiple (>1) holders of the requested data.
system.tol2bus.snoop_filter.hit_single_requests        94120                       # Number of requests hitting in the snoop filter with a single holder of the requested data.
system.tol2bus.snoop_filter.hit_single_snoops          329                       # Number of snoops hitting in the snoop filter with a single holder of the requested data.
system.tol2bus.snoop_filter.tot_requests       190443                       # Total number of requests made to the snoop filter.
system.tol2bus.snoop_filter.tot_snoops            329                       # Total number of snoops made to the snoop filter.
system.tol2bus.snoops                             427                       # Total snoops (count)
system.tol2bus.trans_dist::ReadResp             27345                       # Transaction distribution
system.tol2bus.trans_dist::WritebackDirty        92458                       # Transaction distribution
system.tol2bus.trans_dist::WritebackClean          167                       # Transaction distribution
system.tol2bus.trans_dist::CleanEvict            1922                       # Transaction distribution
system.tol2bus.trans_dist::ReadExReq            68978                       # Transaction distribution
system.tol2bus.trans_dist::ReadExResp           68978                       # Transaction distribution
system.tol2bus.trans_dist::ReadCleanReq          1346                       # Transaction distribution
system.tol2bus.trans_dist::ReadSharedReq        25999                       # Transaction distribution
system.voltage_domain.voltage                       1                       # Voltage in Volts

---------- End Simulation Statistics   ----------
