
---------- Begin Simulation Statistics ----------
final_tick                               387716451500                       # Number of ticks from beginning of simulation (restored from checkpoints and never reset)
host_inst_rate                                 467671                       # Simulator instruction rate (inst/s)
host_mem_usage                                 810320                       # Number of bytes of host memory used
host_op_rate                                   588303                       # Simulator op (including micro ops) rate (op/s)
host_seconds                                   213.83                       # Real time elapsed on the host
host_tick_rate                             1813237566                       # Simulator tick rate (ticks/s)
sim_freq                                 1000000000000                       # Frequency of simulated ticks
sim_insts                                   100000000                       # Number of instructions simulated
sim_ops                                     125794192                       # Number of ops (including micro ops) simulated
sim_seconds                                  0.387716                       # Number of seconds simulated
sim_ticks                                387716451500                       # Number of ticks simulated
system.clk_domain.clock                          1000                       # Clock period in ticks
system.cpu.Branches                           5058750                       # Number of branches fetched
system.cpu.apic_clk_domain.clock                 8000                       # Clock period in ticks
system.cpu.committedInsts                   100000000                       # Number of instructions committed
system.cpu.committedOps                     125794192                       # Number of ops (including micro ops) committed
system.cpu.dcache.ReadReq_accesses::.cpu.data     47308635                       # number of ReadReq accesses(hits+misses)
system.cpu.dcache.ReadReq_accesses::total     47308635                       # number of ReadReq accesses(hits+misses)
system.cpu.dcache.ReadReq_avg_miss_latency::.cpu.data 76435.238338                       # average ReadReq miss latency
system.cpu.dcache.ReadReq_avg_miss_latency::total 76435.238338                       # average ReadReq miss latency
system.cpu.dcache.ReadReq_avg_mshr_miss_latency::.cpu.data 75435.238338                       # average ReadReq mshr miss latency
system.cpu.dcache.ReadReq_avg_mshr_miss_latency::total 75435.238338                       # average ReadReq mshr miss latency
system.cpu.dcache.ReadReq_hits::.cpu.data     46153677                       # number of ReadReq hits
system.cpu.dcache.ReadReq_hits::total        46153677                       # number of ReadReq hits
system.cpu.dcache.ReadReq_miss_latency::.cpu.data  88279490000                       # number of ReadReq miss cycles
system.cpu.dcache.ReadReq_miss_latency::total  88279490000                       # number of ReadReq miss cycles
system.cpu.dcache.ReadReq_miss_rate::.cpu.data     0.024413                       # miss rate for ReadReq accesses
system.cpu.dcache.ReadReq_miss_rate::total     0.024413                       # miss rate for ReadReq accesses
system.cpu.dcache.ReadReq_misses::.cpu.data      1154958                       # number of ReadReq misses
system.cpu.dcache.ReadReq_misses::total       1154958                       # number of ReadReq misses
system.cpu.dcache.ReadReq_mshr_miss_latency::.cpu.data  87124532000                       # number of ReadReq MSHR miss cycles
system.cpu.dcache.ReadReq_mshr_miss_latency::total  87124532000                       # number of ReadReq MSHR miss cycles
system.cpu.dcache.ReadReq_mshr_miss_rate::.cpu.data     0.024413                       # mshr miss rate for ReadReq accesses
system.cpu.dcache.ReadReq_mshr_miss_rate::total     0.024413                       # mshr miss rate for ReadReq accesses
system.cpu.dcache.ReadReq_mshr_misses::.cpu.data      1154958                       # number of ReadReq MSHR misses
system.cpu.dcache.ReadReq_mshr_misses::total      1154958                       # number of ReadReq MSHR misses
system.cpu.dcache.SoftPFReq_accesses::.cpu.data        65536                       # number of SoftPFReq accesses(hits+misses)
system.cpu.dcache.SoftPFReq_accesses::total        65536                       # number of SoftPFReq accesses(hits+misses)
system.cpu.dcache.SoftPFReq_avg_mshr_miss_latency::.cpu.data 91945.989792                       # average SoftPFReq mshr miss latency
system.cpu.dcache.SoftPFReq_avg_mshr_miss_latency::total 91945.989792                       # average SoftPFReq mshr miss latency
system.cpu.dcache.SoftPFReq_miss_rate::.cpu.data            1                       # miss rate for SoftPFReq accesses
system.cpu.dcache.SoftPFReq_miss_rate::total            1                       # miss rate for SoftPFReq accesses
system.cpu.dcache.SoftPFReq_misses::.cpu.data        65536                       # number of SoftPFReq misses
system.cpu.dcache.SoftPFReq_misses::total        65536                       # number of SoftPFReq misses
system.cpu.dcache.SoftPFReq_mshr_miss_latency::.cpu.data   6025772387                       # number of SoftPFReq MSHR miss cycles
system.cpu.dcache.SoftPFReq_mshr_miss_latency::total   6025772387                       # number of SoftPFReq MSHR miss cycles
system.cpu.dcache.SoftPFReq_mshr_miss_rate::.cpu.data            1                       # mshr miss rate for SoftPFReq accesses
system.cpu.dcache.SoftPFReq_mshr_miss_rate::total            1                       # mshr miss rate for SoftPFReq accesses
system.cpu.dcache.SoftPFReq_mshr_misses::.cpu.data        65536                       # number of SoftPFReq MSHR misses
system.cpu.dcache.SoftPFReq_mshr_misses::total        65536                       # number of SoftPFReq MSHR misses
system.cpu.dcache.WriteReq_accesses::.cpu.data     17644618                       # number of WriteReq accesses(hits+misses)
system.cpu.dcache.WriteReq_accesses::total     17644618                       # number of WriteReq accesses(hits+misses)
system.cpu.dcache.WriteReq_avg_miss_latency::.cpu.data 80734.410779                       # average WriteReq miss latency
system.cpu.dcache.WriteReq_avg_miss_latency::total 80734.410779                       # average WriteReq miss latency
system.cpu.dcache.WriteReq_avg_mshr_miss_latency::.cpu.data 79734.410779                       # average WriteReq mshr miss latency
system.cpu.dcache.WriteReq_avg_mshr_miss_latency::total 79734.410779                       # average WriteReq mshr miss latency
system.cpu.dcache.WriteReq_hits::.cpu.data     16401307                       # number of WriteReq hits
system.cpu.dcache.WriteReq_hits::total       16401307                       # number of WriteReq hits
system.cpu.dcache.WriteReq_miss_latency::.cpu.data 100377981000                       # number of WriteReq miss cycles
system.cpu.dcache.WriteReq_miss_latency::total 100377981000                       # number of WriteReq miss cycles
system.cpu.dcache.WriteReq_miss_rate::.cpu.data     0.070464                       # miss rate for WriteReq accesses
system.cpu.dcache.WriteReq_miss_rate::total     0.070464                       # miss rate for WriteReq accesses
system.cpu.dcache.WriteReq_misses::.cpu.data      1243311                       # number of WriteReq misses
system.cpu.dcache.WriteReq_misses::total      1243311                       # number of WriteReq misses
system.cpu.dcache.WriteReq_mshr_miss_latency::.cpu.data  99134670000                       # number of WriteReq MSHR miss cycles
system.cpu.dcache.WriteReq_mshr_miss_latency::total  99134670000                       # number of WriteReq MSHR miss cycles
system.cpu.dcache.WriteReq_mshr_miss_rate::.cpu.data     0.070464                       # mshr miss rate for WriteReq accesses
system.cpu.dcache.WriteReq_mshr_miss_rate::total     0.070464                       # mshr miss rate for WriteReq accesses
system.cpu.dcache.WriteReq_mshr_misses::.cpu.data      1243311                       # number of WriteReq MSHR misses
system.cpu.dcache.WriteReq_mshr_misses::total      1243311                       # number of WriteReq MSHR misses
system.cpu.dcache.avg_blocked_cycles::no_mshrs    67.700304                       # average number of cycles each access was blocked
system.cpu.dcache.avg_blocked_cycles::no_targets          nan                       # average number of cycles each access was blocked
system.cpu.dcache.blocked::no_mshrs             21048                       # number of cycles access was blocked
system.cpu.dcache.blocked::no_targets               0                       # number of cycles access was blocked
system.cpu.dcache.blocked_cycles::no_mshrs      1424956                       # number of cycles access was blocked
system.cpu.dcache.blocked_cycles::no_targets            0                       # number of cycles access was blocked
system.cpu.dcache.demand_accesses::.cpu.data     64953253                       # number of demand (read+write) accesses
system.cpu.dcache.demand_accesses::total     64953253                       # number of demand (read+write) accesses
system.cpu.dcache.demand_avg_miss_latency::.cpu.data 78664.016005                       # average overall miss latency
system.cpu.dcache.demand_avg_miss_latency::total 78664.016005                       # average overall miss latency
system.cpu.dcache.demand_avg_mshr_miss_latency::.cpu.data 77664.016005                       # average overall mshr miss latency
system.cpu.dcache.demand_avg_mshr_miss_latency::total 77664.016005                       # average overall mshr miss latency
system.cpu.dcache.demand_hits::.cpu.data     62554984                       # number of demand (read+write) hits
system.cpu.dcache.demand_hits::total         62554984                       # number of demand (read+write) hits
system.cpu.dcache.demand_miss_latency::.cpu.data 188657471000                       # number of demand (read+write) miss cycles
system.cpu.dcache.demand_miss_latency::total 188657471000                       # number of demand (read+write) miss cycles
system.cpu.dcache.demand_miss_rate::.cpu.data     0.036923                       # miss rate for demand accesses
system.cpu.dcache.demand_miss_rate::total     0.036923                       # miss rate for demand accesses
system.cpu.dcache.demand_misses::.cpu.data      2398269                       # number of demand (read+write) misses
system.cpu.dcache.demand_misses::total        2398269                       # number of demand (read+write) misses
system.cpu.dcache.demand_mshr_miss_latency::.cpu.data 186259202000                       # number of demand (read+write) MSHR miss cycles
system.cpu.dcache.demand_mshr_miss_latency::total 186259202000                       # number of demand (read+write) MSHR miss cycles
system.cpu.dcache.demand_mshr_miss_rate::.cpu.data     0.036923                       # mshr miss rate for demand accesses
system.cpu.dcache.demand_mshr_miss_rate::total     0.036923                       # mshr miss rate for demand accesses
system.cpu.dcache.demand_mshr_misses::.cpu.data      2398269                       # number of demand (read+write) MSHR misses
system.cpu.dcache.demand_mshr_misses::total      2398269                       # number of demand (read+write) MSHR misses
system.cpu.dcache.overall_accesses::.cpu.data     65018789                       # number of overall (read+write) accesses
system.cpu.dcache.overall_accesses::total     65018789                       # number of overall (read+write) accesses
system.cpu.dcache.overall_avg_miss_latency::.cpu.data 76571.591908                       # average overall miss latency
system.cpu.dcache.overall_avg_miss_latency::total 76571.591908                       # average overall miss latency
system.cpu.dcache.overall_avg_mshr_miss_latency::.cpu.data 78043.909476                       # average overall mshr miss latency
system.cpu.dcache.overall_avg_mshr_miss_latency::total 78043.909476                       # average overall mshr miss latency
system.cpu.dcache.overall_hits::.cpu.data     62554984                       # number of overall hits
system.cpu.dcache.overall_hits::total        62554984                       # number of overall hits
system.cpu.dcache.overall_miss_latency::.cpu.data 188657471000                       # number of overall miss cycles
system.cpu.dcache.overall_miss_latency::total 188657471000                       # number of overall miss cycles
system.cpu.dcache.overall_miss_rate::.cpu.data     0.037894                       # miss rate for overall accesses
system.cpu.dcache.overall_miss_rate::total     0.037894                       # miss rate for overall accesses
system.cpu.dcache.overall_misses::.cpu.data      2463805                       # number of overall misses
system.cpu.dcache.overall_misses::total       2463805                       # number of overall misses
system.cpu.dcache.overall_mshr_miss_latency::.cpu.data 192284974387                       # number of overall MSHR miss cycles
system.cpu.dcache.overall_mshr_miss_latency::total 192284974387                       # number of overall MSHR miss cycles
system.cpu.dcache.overall_mshr_miss_rate::.cpu.data     0.037894                       # mshr miss rate for overall accesses
system.cpu.dcache.overall_mshr_miss_rate::total     0.037894                       # mshr miss rate for overall accesses
system.cpu.dcache.overall_mshr_misses::.cpu.data      2463805                       # number of overall MSHR misses
system.cpu.dcache.overall_mshr_misses::total      2463805                       # number of overall MSHR misses
system.cpu.dcache.pwrStateResidencyTicks::UNDEFINED 387716451500                       # Cumulative time (in ticks) in various power states
system.cpu.dcache.replacements                2461757                       # number of replacements
system.cpu.dcache.tags.age_task_id_blocks_1024::0           59                       # Occupied blocks per task id
system.cpu.dcache.tags.age_task_id_blocks_1024::1          326                       # Occupied blocks per task id
system.cpu.dcache.tags.age_task_id_blocks_1024::2         1328                       # Occupied blocks per task id
system.cpu.dcache.tags.age_task_id_blocks_1024::3          334                       # Occupied blocks per task id
system.cpu.dcache.tags.age_task_id_blocks_1024::4            1                       # Occupied blocks per task id
system.cpu.dcache.tags.avg_refs             26.389584                       # Average number of references to valid blocks.
system.cpu.dcache.tags.data_accesses        132501383                       # Number of data accesses
system.cpu.dcache.tags.occ_blocks::.cpu.data  1941.800525                       # Average occupied blocks per requestor
system.cpu.dcache.tags.occ_percent::.cpu.data     0.948145                       # Average percentage of cache occupancy
system.cpu.dcache.tags.occ_percent::total     0.948145                       # Average percentage of cache occupancy
system.cpu.dcache.tags.occ_task_id_blocks::1024         2048                       # Occupied blocks per task id
system.cpu.dcache.tags.occ_task_id_percent::1024            1                       # Percentage of cache occupancy per task id
system.cpu.dcache.tags.pwrStateResidencyTicks::UNDEFINED 387716451500                       # Cumulative time (in ticks) in various power states
system.cpu.dcache.tags.sampled_refs           2463805                       # Sample count of references to valid blocks.
system.cpu.dcache.tags.tag_accesses         132501383                       # Number of tag accesses
system.cpu.dcache.tags.tagsinuse          1941.800525                       # Cycle average of tags in use
system.cpu.dcache.tags.total_refs            65018789                       # Total number of references to valid blocks.
system.cpu.dcache.tags.warmup_cycle            195500                       # Cycle when the warmup percentage was hit.
system.cpu.dcache.writebacks::.writebacks      1455556                       # number of writebacks
system.cpu.dcache.writebacks::total           1455556                       # number of writebacks
system.cpu.dtb.pwrStateResidencyTicks::UNDEFINED 387716451500                       # Cumulative time (in ticks) in various power states
system.cpu.dtb.rdAccesses                    47374171                       # TLB accesses on read requests
system.cpu.dtb.rdMisses                        154481                       # TLB misses on read requests
system.cpu.dtb.walker.pwrStateResidencyTicks::UNDEFINED 387716451500                       # Cumulative time (in ticks) in various power states
system.cpu.dtb.wrAccesses                    17644618                       # TLB accesses on write requests
system.cpu.dtb.wrMisses                        392711                       # TLB misses on write requests
system.cpu.dtb_walker_cache.avg_blocked_cycles::no_mshrs          nan                       # average number of cycles each access was blocked
system.cpu.dtb_walker_cache.avg_blocked_cycles::no_targets          nan                       # average number of cycles each access was blocked
system.cpu.dtb_walker_cache.blocked::no_mshrs            0                       # number of cycles access was blocked
system.cpu.dtb_walker_cache.blocked::no_targets            0                       # number of cycles access was blocked
system.cpu.dtb_walker_cache.blocked_cycles::no_mshrs            0                       # number of cycles access was blocked
system.cpu.dtb_walker_cache.blocked_cycles::no_targets            0                       # number of cycles access was blocked
system.cpu.dtb_walker_cache.pwrStateResidencyTicks::UNDEFINED 387716451500                       # Cumulative time (in ticks) in various power states
system.cpu.dtb_walker_cache.replacements            0                       # number of replacements
system.cpu.dtb_walker_cache.tags.avg_refs          nan                       # Average number of references to valid blocks.
system.cpu.dtb_walker_cache.tags.data_accesses            0                       # Number of data accesses
system.cpu.dtb_walker_cache.tags.pwrStateResidencyTicks::UNDEFINED 387716451500                       # Cumulative time (in ticks) in various power states
system.cpu.dtb_walker_cache.tags.sampled_refs            0                       # Sample count of references to valid blocks.
system.cpu.dtb_walker_cache.tags.tag_accesses            0                       # Number of tag accesses
system.cpu.dtb_walker_cache.tags.tagsinuse            0                       # Cycle average of tags in use
system.cpu.dtb_walker_cache.tags.total_refs            0                       # Total number of references to valid blocks.
system.cpu.dtb_walker_cache.tags.warmup_cycle            0                       # Cycle when the warmup percentage was hit.
system.cpu.icache.ReadReq_accesses::.cpu.inst    135711381                       # number of ReadReq accesses(hits+misses)
system.cpu.icache.ReadReq_accesses::total    135711381                       # number of ReadReq accesses(hits+misses)
system.cpu.icache.ReadReq_avg_miss_latency::.cpu.inst 88031.309298                       # average ReadReq miss latency
system.cpu.icache.ReadReq_avg_miss_latency::total 88031.309298                       # average ReadReq miss latency
system.cpu.icache.ReadReq_avg_mshr_miss_latency::.cpu.inst 87031.309298                       # average ReadReq mshr miss latency
system.cpu.icache.ReadReq_avg_mshr_miss_latency::total 87031.309298                       # average ReadReq mshr miss latency
system.cpu.icache.ReadReq_hits::.cpu.inst    135710854                       # number of ReadReq hits
system.cpu.icache.ReadReq_hits::total       135710854                       # number of ReadReq hits
system.cpu.icache.ReadReq_miss_latency::.cpu.inst     46392500                       # number of ReadReq miss cycles
system.cpu.icache.ReadReq_miss_latency::total     46392500                       # number of ReadReq miss cycles
system.cpu.icache.ReadReq_miss_rate::.cpu.inst     0.000004                       # miss rate for ReadReq accesses
system.cpu.icache.ReadReq_miss_rate::total     0.000004                       # miss rate for ReadReq accesses
system.cpu.icache.ReadReq_misses::.cpu.inst          527                       # number of ReadReq misses
system.cpu.icache.ReadReq_misses::total           527                       # number of ReadReq misses
system.cpu.icache.ReadReq_mshr_miss_latency::.cpu.inst     45865500                       # number of ReadReq MSHR miss cycles
system.cpu.icache.ReadReq_mshr_miss_latency::total     45865500                       # number of ReadReq MSHR miss cycles
system.cpu.icache.ReadReq_mshr_miss_rate::.cpu.inst     0.000004                       # mshr miss rate for ReadReq accesses
system.cpu.icache.ReadReq_mshr_miss_rate::total     0.000004                       # mshr miss rate for ReadReq accesses
system.cpu.icache.ReadReq_mshr_misses::.cpu.inst          527                       # number of ReadReq MSHR misses
system.cpu.icache.ReadReq_mshr_misses::total          527                       # number of ReadReq MSHR misses
system.cpu.icache.avg_blocked_cycles::no_mshrs          nan                       # average number of cycles each access was blocked
system.cpu.icache.avg_blocked_cycles::no_targets          nan                       # average number of cycles each access was blocked
system.cpu.icache.blocked::no_mshrs                 0                       # number of cycles access was blocked
system.cpu.icache.blocked::no_targets               0                       # number of cycles access was blocked
system.cpu.icache.blocked_cycles::no_mshrs            0                       # number of cycles access was blocked
system.cpu.icache.blocked_cycles::no_targets            0                       # number of cycles access was blocked
system.cpu.icache.demand_accesses::.cpu.inst    135711381                       # number of demand (read+write) accesses
system.cpu.icache.demand_accesses::total    135711381                       # number of demand (read+write) accesses
system.cpu.icache.demand_avg_miss_latency::.cpu.inst 88031.309298                       # average overall miss latency
system.cpu.icache.demand_avg_miss_latency::total 88031.309298                       # average overall miss latency
system.cpu.icache.demand_avg_mshr_miss_latency::.cpu.inst 87031.309298                       # average overall mshr miss latency
system.cpu.icache.demand_avg_mshr_miss_latency::total 87031.309298                       # average overall mshr miss latency
system.cpu.icache.demand_hits::.cpu.inst    135710854                       # number of demand (read+write) hits
system.cpu.icache.demand_hits::total        135710854                       # number of demand (read+write) hits
system.cpu.icache.demand_miss_latency::.cpu.inst     46392500                       # number of demand (read+write) miss cycles
system.cpu.icache.demand_miss_latency::total     46392500                       # number of demand (read+write) miss cycles
system.cpu.icache.demand_miss_rate::.cpu.inst     0.000004                       # miss rate for demand accesses
system.cpu.icache.demand_miss_rate::total     0.000004                       # miss rate for demand accesses
system.cpu.icache.demand_misses::.cpu.inst          527                       # number of demand (read+write) misses
system.cpu.icache.demand_misses::total            527                       # number of demand (read+write) misses
system.cpu.icache.demand_mshr_miss_latency::.cpu.inst     45865500                       # number of demand (read+write) MSHR miss cycles
system.cpu.icache.demand_mshr_miss_latency::total     45865500                       # number of demand (read+write) MSHR miss cycles
system.cpu.icache.demand_mshr_miss_rate::.cpu.inst     0.000004                       # mshr miss rate for demand accesses
system.cpu.icache.demand_mshr_miss_rate::total     0.000004                       # mshr miss rate for demand accesses
system.cpu.icache.demand_mshr_misses::.cpu.inst          527                       # number of demand (read+write) MSHR misses
system.cpu.icache.demand_mshr_misses::total          527                       # number of demand (read+write) MSHR misses
system.cpu.icache.overall_accesses::.cpu.inst    135711381                       # number of overall (read+write) accesses
system.cpu.icache.overall_accesses::total    135711381                       # number of overall (read+write) accesses
system.cpu.icache.overall_avg_miss_latency::.cpu.inst 88031.309298                       # average overall miss latency
system.cpu.icache.overall_avg_miss_latency::total 88031.309298                       # average overall miss latency
system.cpu.icache.overall_avg_mshr_miss_latency::.cpu.inst 87031.309298                       # average overall mshr miss latency
system.cpu.icache.overall_avg_mshr_miss_latency::total 87031.309298                       # average overall mshr miss latency
system.cpu.icache.overall_hits::.cpu.inst    135710854                       # number of overall hits
system.cpu.icache.overall_hits::total       135710854                       # number of overall hits
system.cpu.icache.overall_miss_latency::.cpu.inst     46392500                       # number of overall miss cycles
system.cpu.icache.overall_miss_latency::total     46392500                       # number of overall miss cycles
system.cpu.icache.overall_miss_rate::.cpu.inst     0.000004                       # miss rate for overall accesses
system.cpu.icache.overall_miss_rate::total     0.000004                       # miss rate for overall accesses
system.cpu.icache.overall_misses::.cpu.inst          527                       # number of overall misses
system.cpu.icache.overall_misses::total           527                       # number of overall misses
system.cpu.icache.overall_mshr_miss_latency::.cpu.inst     45865500                       # number of overall MSHR miss cycles
system.cpu.icache.overall_mshr_miss_latency::total     45865500                       # number of overall MSHR miss cycles
system.cpu.icache.overall_mshr_miss_rate::.cpu.inst     0.000004                       # mshr miss rate for overall accesses
system.cpu.icache.overall_mshr_miss_rate::total     0.000004                       # mshr miss rate for overall accesses
system.cpu.icache.overall_mshr_misses::.cpu.inst          527                       # number of overall MSHR misses
system.cpu.icache.overall_mshr_misses::total          527                       # number of overall MSHR misses
system.cpu.icache.pwrStateResidencyTicks::UNDEFINED 387716451500                       # Cumulative time (in ticks) in various power states
system.cpu.icache.replacements                      6                       # number of replacements
system.cpu.icache.tags.age_task_id_blocks_1024::4          521                       # Occupied blocks per task id
system.cpu.icache.tags.avg_refs          257516.851992                       # Average number of references to valid blocks.
system.cpu.icache.tags.data_accesses        271423289                       # Number of data accesses
system.cpu.icache.tags.occ_blocks::.cpu.inst   426.558895                       # Average occupied blocks per requestor
system.cpu.icache.tags.occ_percent::.cpu.inst     0.208281                       # Average percentage of cache occupancy
system.cpu.icache.tags.occ_percent::total     0.208281                       # Average percentage of cache occupancy
system.cpu.icache.tags.occ_task_id_blocks::1024          521                       # Occupied blocks per task id
system.cpu.icache.tags.occ_task_id_percent::1024     0.254395                       # Percentage of cache occupancy per task id
system.cpu.icache.tags.pwrStateResidencyTicks::UNDEFINED 387716451500                       # Cumulative time (in ticks) in various power states
system.cpu.icache.tags.sampled_refs               527                       # Sample count of references to valid blocks.
system.cpu.icache.tags.tag_accesses         271423289                       # Number of tag accesses
system.cpu.icache.tags.tagsinuse           426.558895                       # Cycle average of tags in use
system.cpu.icache.tags.total_refs           135711381                       # Total number of references to valid blocks.
system.cpu.icache.tags.warmup_cycle             87500                       # Cycle when the warmup percentage was hit.
system.cpu.icache.writebacks::.writebacks            6                       # number of writebacks
system.cpu.icache.writebacks::total                 6                       # number of writebacks
system.cpu.idle_fraction                            0                       # Percentage of idle cycles
system.cpu.interrupts.pwrStateResidencyTicks::UNDEFINED 387716451500                       # Cumulative time (in ticks) in various power states
system.cpu.itb.pwrStateResidencyTicks::UNDEFINED 387716451500                       # Cumulative time (in ticks) in various power states
system.cpu.itb.rdAccesses                           0                       # TLB accesses on read requests
system.cpu.itb.rdMisses                             0                       # TLB misses on read requests
system.cpu.itb.walker.pwrStateResidencyTicks::UNDEFINED 387716451500                       # Cumulative time (in ticks) in various power states
system.cpu.itb.wrAccesses                   135711381                       # TLB accesses on write requests
system.cpu.itb.wrMisses                            47                       # TLB misses on write requests
system.cpu.itb_walker_cache.avg_blocked_cycles::no_mshrs          nan                       # average number of cycles each access was blocked
system.cpu.itb_walker_cache.avg_blocked_cycles::no_targets          nan                       # average number of cycles each access was blocked
system.cpu.itb_walker_cache.blocked::no_mshrs            0                       # number of cycles access was blocked
system.cpu.itb_walker_cache.blocked::no_targets            0                       # number of cycles access was blocked
system.cpu.itb_walker_cache.blocked_cycles::no_mshrs            0                       # number of cycles access was blocked
system.cpu.itb_walker_cache.blocked_cycles::no_targets            0                       # number of cycles access was blocked
system.cpu.itb_walker_cache.pwrStateResidencyTicks::UNDEFINED 387716451500                       # Cumulative time (in ticks) in various power states
system.cpu.itb_walker_cache.replacements            0                       # number of replacements
system.cpu.itb_walker_cache.tags.avg_refs          nan                       # Average number of references to valid blocks.
system.cpu.itb_walker_cache.tags.data_accesses            0                       # Number of data accesses
system.cpu.itb_walker_cache.tags.pwrStateResidencyTicks::UNDEFINED 387716451500                       # Cumulative time (in ticks) in various power states
system.cpu.itb_walker_cache.tags.sampled_refs            0                       # Sample count of references to valid blocks.
system.cpu.itb_walker_cache.tags.tag_accesses            0                       # Number of tag accesses
system.cpu.itb_walker_cache.tags.tagsinuse            0                       # Cycle average of tags in use
system.cpu.itb_walker_cache.tags.total_refs            0                       # Total number of references to valid blocks.
system.cpu.itb_walker_cache.tags.warmup_cycle            0                       # Cycle when the warmup percentage was hit.
system.cpu.not_idle_fraction                        1                       # Percentage of non-idle cycles
system.cpu.numCycles                        775432903                       # number of cpu cycles simulated
system.cpu.numWorkItemsCompleted                    0                       # number of work items this cpu completed
system.cpu.numWorkItemsStarted                      0                       # number of work items this cpu started
system.cpu.num_busy_cycles                  775432903                       # Number of busy cycles
system.cpu.num_cc_register_reads             26576152                       # number of times the CC registers were read
system.cpu.num_cc_register_writes            36968375                       # number of times the CC registers were written
system.cpu.num_conditional_control_insts      3953451                       # number of instructions that are conditional controls
system.cpu.num_fp_alu_accesses                    835                       # Number of float alu accesses
system.cpu.num_fp_insts                           835                       # number of float instructions
system.cpu.num_fp_register_reads                 1311                       # number of times the floating registers were read
system.cpu.num_fp_register_writes                 577                       # number of times the floating registers were written
system.cpu.num_func_calls                       69322                       # number of times a function call or return occured
system.cpu.num_idle_cycles                          0                       # Number of idle cycles
system.cpu.num_int_alu_accesses             124833182                       # Number of integer alu accesses
system.cpu.num_int_insts                    124833182                       # number of integer instructions
system.cpu.num_int_register_reads           314540083                       # number of times the integer registers were read
system.cpu.num_int_register_writes          102332169                       # number of times the integer registers were written
system.cpu.num_load_insts                    47374160                       # Number of load instructions
system.cpu.num_mem_refs                      65018778                       # number of memory refs
system.cpu.num_store_insts                   17644618                       # Number of store instructions
system.cpu.num_vec_alu_accesses                     0                       # Number of vector alu accesses
system.cpu.num_vec_insts                            0                       # number of vector instructions
system.cpu.num_vec_register_reads                   0                       # number of times the vector registers were read
system.cpu.num_vec_register_writes                  0                       # number of times the vector registers were written
system.cpu.op_class::No_OpClass                960292      0.76%      0.76% # Class of executed instruction
system.cpu.op_class::IntAlu                  59683576     47.45%     48.21% # Class of executed instruction
system.cpu.op_class::IntMult                   130946      0.10%     48.31% # Class of executed instruction
system.cpu.op_class::IntDiv                        70      0.00%     48.31% # Class of executed instruction
system.cpu.op_class::FloatAdd                      21      0.00%     48.31% # Class of executed instruction
system.cpu.op_class::FloatCmp                       0      0.00%     48.31% # Class of executed instruction
system.cpu.op_class::FloatCvt                       0      0.00%     48.31% # Class of executed instruction
system.cpu.op_class::FloatMult                      0      0.00%     48.31% # Class of executed instruction
system.cpu.op_class::FloatMultAcc                   0      0.00%     48.31% # Class of executed instruction
system.cpu.op_class::FloatDiv                       0      0.00%     48.31% # Class of executed instruction
system.cpu.op_class::FloatMisc                      0      0.00%     48.31% # Class of executed instruction
system.cpu.op_class::FloatSqrt                      0      0.00%     48.31% # Class of executed instruction
system.cpu.op_class::SimdAdd                        0      0.00%     48.31% # Class of executed instruction
system.cpu.op_class::SimdAddAcc                     0      0.00%     48.31% # Class of executed instruction
system.cpu.op_class::SimdAlu                      142      0.00%     48.31% # Class of executed instruction
system.cpu.op_class::SimdCmp                        0      0.00%     48.31% # Class of executed instruction
system.cpu.op_class::SimdCvt                      126      0.00%     48.31% # Class of executed instruction
system.cpu.op_class::SimdMisc                     241      0.00%     48.31% # Class of executed instruction
system.cpu.op_class::SimdMult                       0      0.00%     48.31% # Class of executed instruction
system.cpu.op_class::SimdMultAcc                    0      0.00%     48.31% # Class of executed instruction
system.cpu.op_class::SimdShift                      0      0.00%     48.31% # Class of executed instruction
system.cpu.op_class::SimdShiftAcc                   0      0.00%     48.31% # Class of executed instruction
system.cpu.op_class::SimdDiv                        0      0.00%     48.31% # Class of executed instruction
system.cpu.op_class::SimdSqrt                       0      0.00%     48.31% # Class of executed instruction
system.cpu.op_class::SimdFloatAdd                   0      0.00%     48.31% # Class of executed instruction
system.cpu.op_class::SimdFloatAlu                   0      0.00%     48.31% # Class of executed instruction
system.cpu.op_class::SimdFloatCmp                   0      0.00%     48.31% # Class of executed instruction
system.cpu.op_class::SimdFloatCvt                   0      0.00%     48.31% # Class of executed instruction
system.cpu.op_class::SimdFloatDiv                   0      0.00%     48.31% # Class of executed instruction
system.cpu.op_class::SimdFloatMisc                  0      0.00%     48.31% # Class of executed instruction
system.cpu.op_class::SimdFloatMult                  0      0.00%     48.31% # Class of executed instruction
system.cpu.op_class::SimdFloatMultAcc               0      0.00%     48.31% # Class of executed instruction
system.cpu.op_class::SimdFloatSqrt                  0      0.00%     48.31% # Class of executed instruction
system.cpu.op_class::SimdReduceAdd                  0      0.00%     48.31% # Class of executed instruction
system.cpu.op_class::SimdReduceAlu                  0      0.00%     48.31% # Class of executed instruction
system.cpu.op_class::SimdReduceCmp                  0      0.00%     48.31% # Class of executed instruction
system.cpu.op_class::SimdFloatReduceAdd             0      0.00%     48.31% # Class of executed instruction
system.cpu.op_class::SimdFloatReduceCmp             0      0.00%     48.31% # Class of executed instruction
system.cpu.op_class::SimdAes                        0      0.00%     48.31% # Class of executed instruction
system.cpu.op_class::SimdAesMix                     0      0.00%     48.31% # Class of executed instruction
system.cpu.op_class::SimdSha1Hash                   0      0.00%     48.31% # Class of executed instruction
system.cpu.op_class::SimdSha1Hash2                  0      0.00%     48.31% # Class of executed instruction
system.cpu.op_class::SimdSha256Hash                 0      0.00%     48.31% # Class of executed instruction
system.cpu.op_class::SimdSha256Hash2                0      0.00%     48.31% # Class of executed instruction
system.cpu.op_class::SimdShaSigma2                  0      0.00%     48.31% # Class of executed instruction
system.cpu.op_class::SimdShaSigma3                  0      0.00%     48.31% # Class of executed instruction
system.cpu.op_class::SimdPredAlu                    0      0.00%     48.31% # Class of executed instruction
system.cpu.op_class::MemRead                 47374078     37.66%     85.97% # Class of executed instruction
system.cpu.op_class::MemWrite                17644454     14.03%    100.00% # Class of executed instruction
system.cpu.op_class::FloatMemRead                  82      0.00%    100.00% # Class of executed instruction
system.cpu.op_class::FloatMemWrite                164      0.00%    100.00% # Class of executed instruction
system.cpu.op_class::IprAccess                      0      0.00%    100.00% # Class of executed instruction
system.cpu.op_class::InstPrefetch                   0      0.00%    100.00% # Class of executed instruction
system.cpu.op_class::total                  125794192                       # Class of executed instruction
system.cpu.pwrStateResidencyTicks::ON    387716451500                       # Cumulative time (in ticks) in various power states
system.cpu.workload.numSyscalls                    89                       # Number of system calls
system.cpu_clk_domain.clock                       500                       # Clock period in ticks
system.cpu_voltage_domain.voltage                   1                       # Voltage in Volts
system.l2.CleanEvict_mshr_miss_rate::.writebacks          inf                       # mshr miss rate for CleanEvict accesses
system.l2.CleanEvict_mshr_miss_rate::total          inf                       # mshr miss rate for CleanEvict accesses
system.l2.CleanEvict_mshr_misses::.writebacks        46136                       # number of CleanEvict MSHR misses
system.l2.CleanEvict_mshr_misses::total         46136                       # number of CleanEvict MSHR misses
system.l2.ReadCleanReq_accesses::.cpu.inst          527                       # number of ReadCleanReq accesses(hits+misses)
system.l2.ReadCleanReq_accesses::total            527                       # number of ReadCleanReq accesses(hits+misses)
system.l2.ReadCleanReq_avg_miss_latency::.cpu.inst 85672.053232                       # average ReadCleanReq miss latency
system.l2.ReadCleanReq_avg_miss_latency::total 85672.053232                       # average ReadCleanReq miss latency
system.l2.ReadCleanReq_avg_mshr_miss_latency::.cpu.inst 75672.053232                       # average ReadCleanReq mshr miss latency
system.l2.ReadCleanReq_avg_mshr_miss_latency::total 75672.053232                       # average ReadCleanReq mshr miss latency
system.l2.ReadCleanReq_hits::.cpu.inst              1                       # number of ReadCleanReq hits
system.l2.ReadCleanReq_hits::total                  1                       # number of ReadCleanReq hits
system.l2.ReadCleanReq_miss_latency::.cpu.inst     45063500                       # number of ReadCleanReq miss cycles
system.l2.ReadCleanReq_miss_latency::total     45063500                       # number of ReadCleanReq miss cycles
system.l2.ReadCleanReq_miss_rate::.cpu.inst     0.998102                       # miss rate for ReadCleanReq accesses
system.l2.ReadCleanReq_miss_rate::total      0.998102                       # miss rate for ReadCleanReq accesses
system.l2.ReadCleanReq_misses::.cpu.inst          526                       # number of ReadCleanReq misses
system.l2.ReadCleanReq_misses::total              526                       # number of ReadCleanReq misses
system.l2.ReadCleanReq_mshr_miss_latency::.cpu.inst     39803500                       # number of ReadCleanReq MSHR miss cycles
system.l2.ReadCleanReq_mshr_miss_latency::total     39803500                       # number of ReadCleanReq MSHR miss cycles
system.l2.ReadCleanReq_mshr_miss_rate::.cpu.inst     0.998102                       # mshr miss rate for ReadCleanReq accesses
system.l2.ReadCleanReq_mshr_miss_rate::total     0.998102                       # mshr miss rate for ReadCleanReq accesses
system.l2.ReadCleanReq_mshr_misses::.cpu.inst          526                       # number of ReadCleanReq MSHR misses
system.l2.ReadCleanReq_mshr_misses::total          526                       # number of ReadCleanReq MSHR misses
system.l2.ReadExReq_accesses::.cpu.data       1243311                       # number of ReadExReq accesses(hits+misses)
system.l2.ReadExReq_accesses::total           1243311                       # number of ReadExReq accesses(hits+misses)
system.l2.ReadExReq_avg_miss_latency::.cpu.data 83191.074135                       # average ReadExReq miss latency
system.l2.ReadExReq_avg_miss_latency::total 83191.074135                       # average ReadExReq miss latency
system.l2.ReadExReq_avg_mshr_miss_latency::.cpu.data 73191.074135                       # average ReadExReq mshr miss latency
system.l2.ReadExReq_avg_mshr_miss_latency::total 73191.074135                       # average ReadExReq mshr miss latency
system.l2.ReadExReq_hits::.cpu.data             84779                       # number of ReadExReq hits
system.l2.ReadExReq_hits::total                 84779                       # number of ReadExReq hits
system.l2.ReadExReq_miss_latency::.cpu.data  96379521500                       # number of ReadExReq miss cycles
system.l2.ReadExReq_miss_latency::total   96379521500                       # number of ReadExReq miss cycles
system.l2.ReadExReq_miss_rate::.cpu.data     0.931812                       # miss rate for ReadExReq accesses
system.l2.ReadExReq_miss_rate::total         0.931812                       # miss rate for ReadExReq accesses
system.l2.ReadExReq_misses::.cpu.data         1158532                       # number of ReadExReq misses
system.l2.ReadExReq_misses::total             1158532                       # number of ReadExReq misses
system.l2.ReadExReq_mshr_miss_latency::.cpu.data  84794201500                       # number of ReadExReq MSHR miss cycles
system.l2.ReadExReq_mshr_miss_latency::total  84794201500                       # number of ReadExReq MSHR miss cycles
system.l2.ReadExReq_mshr_miss_rate::.cpu.data     0.931812                       # mshr miss rate for ReadExReq accesses
system.l2.ReadExReq_mshr_miss_rate::total     0.931812                       # mshr miss rate for ReadExReq accesses
system.l2.ReadExReq_mshr_misses::.cpu.data      1158532                       # number of ReadExReq MSHR misses
system.l2.ReadExReq_mshr_misses::total        1158532                       # number of ReadExReq MSHR misses
system.l2.ReadSharedReq_accesses::.cpu.data      1220494                       # number of ReadSharedReq accesses(hits+misses)
system.l2.ReadSharedReq_accesses::total       1220494                       # number of ReadSharedReq accesses(hits+misses)
system.l2.ReadSharedReq_avg_miss_latency::.cpu.data 85541.658860                       # average ReadSharedReq miss latency
system.l2.ReadSharedReq_avg_miss_latency::total 85541.658860                       # average ReadSharedReq miss latency
system.l2.ReadSharedReq_avg_mshr_miss_latency::.cpu.data 75541.658860                       # average ReadSharedReq mshr miss latency
system.l2.ReadSharedReq_avg_mshr_miss_latency::total 75541.658860                       # average ReadSharedReq mshr miss latency
system.l2.ReadSharedReq_hits::.cpu.data        174354                       # number of ReadSharedReq hits
system.l2.ReadSharedReq_hits::total            174354                       # number of ReadSharedReq hits
system.l2.ReadSharedReq_miss_latency::.cpu.data  89488551000                       # number of ReadSharedReq miss cycles
system.l2.ReadSharedReq_miss_latency::total  89488551000                       # number of ReadSharedReq miss cycles
system.l2.ReadSharedReq_miss_rate::.cpu.data     0.857145                       # miss rate for ReadSharedReq accesses
system.l2.ReadSharedReq_miss_rate::total     0.857145                       # miss rate for ReadSharedReq accesses
system.l2.ReadSharedReq_misses::.cpu.data      1046140                       # number of ReadSharedReq misses
system.l2.ReadSharedReq_misses::total         1046140                       # number of ReadSharedReq misses
system.l2.ReadSharedReq_mshr_miss_latency::.cpu.data  79027151000                       # number of ReadSharedReq MSHR miss cycles
system.l2.ReadSharedReq_mshr_miss_latency::total  79027151000                       # number of ReadSharedReq MSHR miss cycles
system.l2.ReadSharedReq_mshr_miss_rate::.cpu.data     0.857145                       # mshr miss rate for ReadSharedReq accesses
system.l2.ReadSharedReq_mshr_miss_rate::total     0.857145                       # mshr miss rate for ReadSharedReq accesses
system.l2.ReadSharedReq_mshr_misses::.cpu.data      1046140                       # number of ReadSharedReq MSHR misses
system.l2.ReadSharedReq_mshr_misses::total      1046140                       # number of ReadSharedReq MSHR misses
system.l2.WritebackClean_accesses::.writebacks            6                       # number of WritebackClean accesses(hits+misses)
system.l2.WritebackClean_accesses::total            6                       # number of WritebackClean accesses(hits+misses)
system.l2.WritebackClean_hits::.writebacks            6                       # number of WritebackClean hits
system.l2.WritebackClean_hits::total                6                       # number of WritebackClean hits
system.l2.WritebackDirty_accesses::.writebacks      1455556                       # number of WritebackDirty accesses(hits+misses)
system.l2.WritebackDirty_accesses::total      1455556                       # number of WritebackDirty accesses(hits+misses)
system.l2.WritebackDirty_hits::.writebacks      1455556                       # number of WritebackDirty hits
system.l2.WritebackDirty_hits::total          1455556                       # number of WritebackDirty hits
system.l2.avg_blocked_cycles::no_mshrs            nan                       # average number of cycles each access was blocked
system.l2.avg_blocked_cycles::no_targets          nan                       # average number of cycles each access was blocked
system.l2.blocked::no_mshrs                         0                       # number of cycles access was blocked
system.l2.blocked::no_targets                       0                       # number of cycles access was blocked
system.l2.blocked_cycles::no_mshrs                  0                       # number of cycles access was blocked
system.l2.blocked_cycles::no_targets                0                       # number of cycles access was blocked
system.l2.demand_accesses::.cpu.inst              527                       # number of demand (read+write) accesses
system.l2.demand_accesses::.cpu.data          2463805                       # number of demand (read+write) accesses
system.l2.demand_accesses::total              2464332                       # number of demand (read+write) accesses
system.l2.demand_avg_miss_latency::.cpu.inst 85672.053232                       # average overall miss latency
system.l2.demand_avg_miss_latency::.cpu.data 84306.451254                       # average overall miss latency
system.l2.demand_avg_miss_latency::total 84306.776988                       # average overall miss latency
system.l2.demand_avg_mshr_miss_latency::.cpu.inst 75672.053232                       # average overall mshr miss latency
system.l2.demand_avg_mshr_miss_latency::.cpu.data 74306.451254                       # average overall mshr miss latency
system.l2.demand_avg_mshr_miss_latency::total 74306.776988                       # average overall mshr miss latency
system.l2.demand_hits::.cpu.inst                    1                       # number of demand (read+write) hits
system.l2.demand_hits::.cpu.data               259133                       # number of demand (read+write) hits
system.l2.demand_hits::total                   259134                       # number of demand (read+write) hits
system.l2.demand_miss_latency::.cpu.inst     45063500                       # number of demand (read+write) miss cycles
system.l2.demand_miss_latency::.cpu.data 185868072500                       # number of demand (read+write) miss cycles
system.l2.demand_miss_latency::total     185913136000                       # number of demand (read+write) miss cycles
system.l2.demand_miss_rate::.cpu.inst        0.998102                       # miss rate for demand accesses
system.l2.demand_miss_rate::.cpu.data        0.894824                       # miss rate for demand accesses
system.l2.demand_miss_rate::total            0.894846                       # miss rate for demand accesses
system.l2.demand_misses::.cpu.inst                526                       # number of demand (read+write) misses
system.l2.demand_misses::.cpu.data            2204672                       # number of demand (read+write) misses
system.l2.demand_misses::total                2205198                       # number of demand (read+write) misses
system.l2.demand_mshr_miss_latency::.cpu.inst     39803500                       # number of demand (read+write) MSHR miss cycles
system.l2.demand_mshr_miss_latency::.cpu.data 163821352500                       # number of demand (read+write) MSHR miss cycles
system.l2.demand_mshr_miss_latency::total 163861156000                       # number of demand (read+write) MSHR miss cycles
system.l2.demand_mshr_miss_rate::.cpu.inst     0.998102                       # mshr miss rate for demand accesses
system.l2.demand_mshr_miss_rate::.cpu.data     0.894824                       # mshr miss rate for demand accesses
system.l2.demand_mshr_miss_rate::total       0.894846                       # mshr miss rate for demand accesses
system.l2.demand_mshr_misses::.cpu.inst           526                       # number of demand (read+write) MSHR misses
system.l2.demand_mshr_misses::.cpu.data       2204672                       # number of demand (read+write) MSHR misses
system.l2.demand_mshr_misses::total           2205198                       # number of demand (read+write) MSHR misses
system.l2.overall_accesses::.cpu.inst             527                       # number of overall (read+write) accesses
system.l2.overall_accesses::.cpu.data         2463805                       # number of overall (read+write) accesses
system.l2.overall_accesses::total             2464332                       # number of overall (read+write) accesses
system.l2.overall_avg_miss_latency::.cpu.inst 85672.053232                       # average overall miss latency
system.l2.overall_avg_miss_latency::.cpu.data 84306.451254                       # average overall miss latency
system.l2.overall_avg_miss_latency::total 84306.776988                       # average overall miss latency
system.l2.overall_avg_mshr_miss_latency::.cpu.inst 75672.053232                       # average overall mshr miss latency
system.l2.overall_avg_mshr_miss_latency::.cpu.data 74306.451254                       # average overall mshr miss latency
system.l2.overall_avg_mshr_miss_latency::total 74306.776988                       # average overall mshr miss latency
system.l2.overall_hits::.cpu.inst                   1                       # number of overall hits
system.l2.overall_hits::.cpu.data              259133                       # number of overall hits
system.l2.overall_hits::total                  259134                       # number of overall hits
system.l2.overall_miss_latency::.cpu.inst     45063500                       # number of overall miss cycles
system.l2.overall_miss_latency::.cpu.data 185868072500                       # number of overall miss cycles
system.l2.overall_miss_latency::total    185913136000                       # number of overall miss cycles
system.l2.overall_miss_rate::.cpu.inst       0.998102                       # miss rate for overall accesses
system.l2.overall_miss_rate::.cpu.data       0.894824                       # miss rate for overall accesses
system.l2.overall_miss_rate::total           0.894846                       # miss rate for overall accesses
system.l2.overall_misses::.cpu.inst               526                       # number of overall misses
system.l2.overall_misses::.cpu.data           2204672                       # number of overall misses
system.l2.overall_misses::total               2205198                       # number of overall misses
system.l2.overall_mshr_miss_latency::.cpu.inst     39803500                       # number of overall MSHR miss cycles
system.l2.overall_mshr_miss_latency::.cpu.data 163821352500                       # number of overall MSHR miss cycles
system.l2.overall_mshr_miss_latency::total 163861156000                       # number of overall MSHR miss cycles
system.l2.overall_mshr_miss_rate::.cpu.inst     0.998102                       # mshr miss rate for overall accesses
system.l2.overall_mshr_miss_rate::.cpu.data     0.894824                       # mshr miss rate for overall accesses
system.l2.overall_mshr_miss_rate::total      0.894846                       # mshr miss rate for overall accesses
system.l2.overall_mshr_misses::.cpu.inst          526                       # number of overall MSHR misses
system.l2.overall_mshr_misses::.cpu.data      2204672                       # number of overall MSHR misses
system.l2.overall_mshr_misses::total          2205198                       # number of overall MSHR misses
system.l2.pwrStateResidencyTicks::UNDEFINED 387716451500                       # Cumulative time (in ticks) in various power states
system.l2.replacements                        2194368                       # number of replacements
system.l2.tags.age_task_id_blocks_1024::0           12                       # Occupied blocks per task id
system.l2.tags.age_task_id_blocks_1024::1          102                       # Occupied blocks per task id
system.l2.tags.age_task_id_blocks_1024::2         1074                       # Occupied blocks per task id
system.l2.tags.age_task_id_blocks_1024::3         7997                       # Occupied blocks per task id
system.l2.tags.age_task_id_blocks_1024::4         7199                       # Occupied blocks per task id
system.l2.tags.avg_refs                      2.207375                       # Average number of references to valid blocks.
system.l2.tags.data_accesses                 12062940                       # Number of data accesses
system.l2.tags.occ_blocks::.writebacks     105.106893                       # Average occupied blocks per requestor
system.l2.tags.occ_blocks::.cpu.inst        35.790250                       # Average occupied blocks per requestor
system.l2.tags.occ_blocks::.cpu.data     15337.324096                       # Average occupied blocks per requestor
system.l2.tags.occ_percent::.writebacks      0.006415                       # Average percentage of cache occupancy
system.l2.tags.occ_percent::.cpu.inst        0.002184                       # Average percentage of cache occupancy
system.l2.tags.occ_percent::.cpu.data        0.936116                       # Average percentage of cache occupancy
system.l2.tags.occ_percent::total            0.944716                       # Average percentage of cache occupancy
system.l2.tags.occ_task_id_blocks::1024         16384                       # Occupied blocks per task id
system.l2.tags.occ_task_id_percent::1024            1                       # Percentage of cache occupancy per task id
system.l2.tags.pwrStateResidencyTicks::UNDEFINED 387716451500                       # Cumulative time (in ticks) in various power states
system.l2.tags.sampled_refs                   2210752                       # Sample count of references to valid blocks.
system.l2.tags.tag_accesses                  12062940                       # Number of tag accesses
system.l2.tags.tagsinuse                 15478.221239                       # Cycle average of tags in use
system.l2.tags.total_refs                     4879958                       # Total number of references to valid blocks.
system.l2.tags.warmup_cycle                     77000                       # Cycle when the warmup percentage was hit.
system.l2.writebacks::.writebacks             1183830                       # number of writebacks
system.l2.writebacks::total                   1183830                       # number of writebacks
system.mem_ctrls.avgBusLat                    5000.00                       # Average bus latency per DRAM burst
system.mem_ctrls.avgGap                     114403.36                       # Average gap between requests
system.mem_ctrls.avgMemAccLat                33514.34                       # Average memory access latency per DRAM burst
system.mem_ctrls.avgPriority_.writebacks::samples   1183829.00                       # Average QoS priority value for accepted requests
system.mem_ctrls.avgPriority_.cpu.inst::samples       526.00                       # Average QoS priority value for accepted requests
system.mem_ctrls.avgPriority_.cpu.data::samples   2204461.00                       # Average QoS priority value for accepted requests
system.mem_ctrls.avgQLat                     14764.34                       # Average queueing delay per DRAM burst
system.mem_ctrls.avgRdBW                       363.98                       # Average DRAM read bandwidth in MiByte/s
system.mem_ctrls.avgRdBWSys                    364.01                       # Average system read bandwidth in MiByte/s
system.mem_ctrls.avgRdQLen                       1.01                       # Average read queue length when enqueuing
system.mem_ctrls.avgWrBW                       195.41                       # Average achieved write bandwidth in MiByte/s
system.mem_ctrls.avgWrBWSys                    195.41                       # Average system write bandwidth in MiByte/s
system.mem_ctrls.avgWrQLen                      25.00                       # Average write queue length when enqueuing
system.mem_ctrls.busUtil                         4.37                       # Data bus utilization in percentage
system.mem_ctrls.busUtilRead                     2.84                       # Data bus utilization in percentage for reads
system.mem_ctrls.busUtilWrite                    1.53                       # Data bus utilization in percentage for writes
system.mem_ctrls.bw_inst_read::.cpu.inst        86826                       # Instruction read bandwidth from this memory (bytes/s)
system.mem_ctrls.bw_inst_read::total            86826                       # Instruction read bandwidth from this memory (bytes/s)
system.mem_ctrls.bw_read::.cpu.inst             86826                       # Total read bandwidth from this memory (bytes/s)
system.mem_ctrls.bw_read::.cpu.data         363923190                       # Total read bandwidth from this memory (bytes/s)
system.mem_ctrls.bw_read::total             364010017                       # Total read bandwidth from this memory (bytes/s)
system.mem_ctrls.bw_total::.writebacks      195413735                       # Total bandwidth to/from this memory (bytes/s)
system.mem_ctrls.bw_total::.cpu.inst            86826                       # Total bandwidth to/from this memory (bytes/s)
system.mem_ctrls.bw_total::.cpu.data        363923190                       # Total bandwidth to/from this memory (bytes/s)
system.mem_ctrls.bw_total::total            559423752                       # Total bandwidth to/from this memory (bytes/s)
system.mem_ctrls.bw_write::.writebacks      195413735                       # Write bandwidth from this memory (bytes/s)
system.mem_ctrls.bw_write::total            195413735                       # Write bandwidth from this memory (bytes/s)
system.mem_ctrls.bytesPerActivate::samples       409792                       # Bytes accessed per row activation
system.mem_ctrls.bytesPerActivate::mean    529.250820                       # Bytes accessed per row activation
system.mem_ctrls.bytesPerActivate::gmean   330.701969                       # Bytes accessed per row activation
system.mem_ctrls.bytesPerActivate::stdev   394.602497                       # Bytes accessed per row activation
system.mem_ctrls.bytesPerActivate::0-127       106394     25.96%     25.96% # Bytes accessed per row activation
system.mem_ctrls.bytesPerActivate::128-255        30203      7.37%     33.33% # Bytes accessed per row activation
system.mem_ctrls.bytesPerActivate::256-383        31962      7.80%     41.13% # Bytes accessed per row activation
system.mem_ctrls.bytesPerActivate::384-511        22357      5.46%     46.59% # Bytes accessed per row activation
system.mem_ctrls.bytesPerActivate::512-639        61281     14.95%     61.54% # Bytes accessed per row activation
system.mem_ctrls.bytesPerActivate::640-767         9943      2.43%     63.97% # Bytes accessed per row activation
system.mem_ctrls.bytesPerActivate::768-895         7668      1.87%     65.84% # Bytes accessed per row activation
system.mem_ctrls.bytesPerActivate::896-1023        10308      2.52%     68.36% # Bytes accessed per row activation
system.mem_ctrls.bytesPerActivate::1024-1151       129676     31.64%    100.00% # Bytes accessed per row activation
system.mem_ctrls.bytesPerActivate::total       409792                       # Bytes accessed per row activation
system.mem_ctrls.bytesReadDRAM              141119168                       # Total number of bytes read from DRAM
system.mem_ctrls.bytesReadSys               141132672                       # Total read bytes from the system interface side
system.mem_ctrls.bytesReadWrQ                   13504                       # Total number of bytes read from write queue
system.mem_ctrls.bytesWritten                75763968                       # Total number of bytes written to DRAM
system.mem_ctrls.bytesWrittenSys             75765120                       # Total written bytes from the system interface side
system.mem_ctrls.bytes_inst_read::.cpu.inst        33664                       # Number of instructions bytes read from this memory
system.mem_ctrls.bytes_inst_read::total         33664                       # Number of instructions bytes read from this memory
system.mem_ctrls.bytes_read::.cpu.inst          33664                       # Number of bytes read from this memory
system.mem_ctrls.bytes_read::.cpu.data      141099008                       # Number of bytes read from this memory
system.mem_ctrls.bytes_read::total          141132672                       # Number of bytes read from this memory
system.mem_ctrls.bytes_written::.writebacks     75765120                       # Number of bytes written to this memory
system.mem_ctrls.bytes_written::total        75765120                       # Number of bytes written to this memory
system.mem_ctrls.masterReadAccesses::.cpu.inst          526                       # Per-master read serviced memory accesses
system.mem_ctrls.masterReadAccesses::.cpu.data      2204672                       # Per-master read serviced memory accesses
system.mem_ctrls.masterReadAvgLat::.cpu.inst     34852.66                       # Per-master read average memory access latency
system.mem_ctrls.masterReadAvgLat::.cpu.data     33510.81                       # Per-master read average memory access latency
system.mem_ctrls.masterReadBytes::.cpu.inst        33664                       # Per-master bytes read from memory
system.mem_ctrls.masterReadBytes::.cpu.data    141085504                       # Per-master bytes read from memory
system.mem_ctrls.masterReadRate::.cpu.inst 86826.338861197379                       # Per-master bytes read from memory rate (Bytes/sec)
system.mem_ctrls.masterReadRate::.cpu.data 363888360.821851789951                       # Per-master bytes read from memory rate (Bytes/sec)
system.mem_ctrls.masterReadTotalLat::.cpu.inst     18332500                       # Per-master read total memory access latency
system.mem_ctrls.masterReadTotalLat::.cpu.data  73880346549                       # Per-master read total memory access latency
system.mem_ctrls.masterWriteAccesses::.writebacks      1183830                       # Per-master write serviced memory accesses
system.mem_ctrls.masterWriteAvgLat::.writebacks   7863881.10                       # Per-master write average memory access latency
system.mem_ctrls.masterWriteBytes::.writebacks     75763968                       # Per-master bytes write to memory
system.mem_ctrls.masterWriteRate::.writebacks 195410763.992303788662                       # Per-master bytes write to memory rate (Bytes/sec)
system.mem_ctrls.masterWriteTotalLat::.writebacks 9309498366109                       # Per-master write total memory access latency
system.mem_ctrls.mergedWrBursts                     1                       # Number of DRAM write bursts merged with an existing one
system.mem_ctrls.neitherReadNorWriteReqs            0                       # Number of requests that are neither read nor write
system.mem_ctrls.numRdRetry                         0                       # Number of times read queue was full causing retry
system.mem_ctrls.numReadWriteTurnArounds        73565                       # Number of turnarounds from READ to WRITE
system.mem_ctrls.numStayReadState             5589508                       # Number of times bus staying in READ state
system.mem_ctrls.numStayWriteState            1112992                       # Number of times bus staying in WRITE state
system.mem_ctrls.numWrRetry                         0                       # Number of times write queue was full causing retry
system.mem_ctrls.numWriteReadTurnArounds        73565                       # Number of turnarounds from WRITE to READ
system.mem_ctrls.num_reads::.cpu.inst             526                       # Number of read requests responded to by this memory
system.mem_ctrls.num_reads::.cpu.data         2204672                       # Number of read requests responded to by this memory
system.mem_ctrls.num_reads::total             2205198                       # Number of read requests responded to by this memory
system.mem_ctrls.num_writes::.writebacks      1183830                       # Number of write requests responded to by this memory
system.mem_ctrls.num_writes::total            1183830                       # Number of write requests responded to by this memory
system.mem_ctrls.pageHitRate                    87.91                       # Row buffer hit rate, read and write combined
system.mem_ctrls.peakBW                      12800.00                       # Theoretical peak bandwidth in MiByte/s
system.mem_ctrls.perBankRdBursts::0            137981                       # Per bank write bursts
system.mem_ctrls.perBankRdBursts::1            137888                       # Per bank write bursts
system.mem_ctrls.perBankRdBursts::2            138083                       # Per bank write bursts
system.mem_ctrls.perBankRdBursts::3            137735                       # Per bank write bursts
system.mem_ctrls.perBankRdBursts::4            137528                       # Per bank write bursts
system.mem_ctrls.perBankRdBursts::5            138003                       # Per bank write bursts
system.mem_ctrls.perBankRdBursts::6            138044                       # Per bank write bursts
system.mem_ctrls.perBankRdBursts::7            137960                       # Per bank write bursts
system.mem_ctrls.perBankRdBursts::8            137551                       # Per bank write bursts
system.mem_ctrls.perBankRdBursts::9            137459                       # Per bank write bursts
system.mem_ctrls.perBankRdBursts::10           137734                       # Per bank write bursts
system.mem_ctrls.perBankRdBursts::11           137939                       # Per bank write bursts
system.mem_ctrls.perBankRdBursts::12           137576                       # Per bank write bursts
system.mem_ctrls.perBankRdBursts::13           137987                       # Per bank write bursts
system.mem_ctrls.perBankRdBursts::14           137824                       # Per bank write bursts
system.mem_ctrls.perBankRdBursts::15           137695                       # Per bank write bursts
system.mem_ctrls.perBankWrBursts::0             74212                       # Per bank write bursts
system.mem_ctrls.perBankWrBursts::1             74219                       # Per bank write bursts
system.mem_ctrls.perBankWrBursts::2             74524                       # Per bank write bursts
system.mem_ctrls.perBankWrBursts::3             74226                       # Per bank write bursts
system.mem_ctrls.perBankWrBursts::4             73772                       # Per bank write bursts
system.mem_ctrls.perBankWrBursts::5             73821                       # Per bank write bursts
system.mem_ctrls.perBankWrBursts::6             73898                       # Per bank write bursts
system.mem_ctrls.perBankWrBursts::7             73935                       # Per bank write bursts
system.mem_ctrls.perBankWrBursts::8             73574                       # Per bank write bursts
system.mem_ctrls.perBankWrBursts::9             73658                       # Per bank write bursts
system.mem_ctrls.perBankWrBursts::10            73854                       # Per bank write bursts
system.mem_ctrls.perBankWrBursts::11            74106                       # Per bank write bursts
system.mem_ctrls.perBankWrBursts::12            73766                       # Per bank write bursts
system.mem_ctrls.perBankWrBursts::13            74170                       # Per bank write bursts
system.mem_ctrls.perBankWrBursts::14            74099                       # Per bank write bursts
system.mem_ctrls.perBankWrBursts::15            73978                       # Per bank write bursts
system.mem_ctrls.priorityMaxLatency      0.151804784500                       # per QoS priority maximum request to response latency (s)
system.mem_ctrls.priorityMinLatency      0.000000018750                       # per QoS priority minimum request to response latency (s)
system.mem_ctrls.pwrStateResidencyTicks::UNDEFINED 387716451500                       # Cumulative time (in ticks) in various power states
system.mem_ctrls.rdPerTurnAround::samples        73565                       # Reads before turning the bus around for writes
system.mem_ctrls.rdPerTurnAround::mean      29.973275                       # Reads before turning the bus around for writes
system.mem_ctrls.rdPerTurnAround::gmean     28.034118                       # Reads before turning the bus around for writes
system.mem_ctrls.rdPerTurnAround::stdev     53.263682                       # Reads before turning the bus around for writes
system.mem_ctrls.rdPerTurnAround::0-511         73535     99.96%     99.96% # Reads before turning the bus around for writes
system.mem_ctrls.rdPerTurnAround::512-1023           17      0.02%     99.98% # Reads before turning the bus around for writes
system.mem_ctrls.rdPerTurnAround::1024-1535           10      0.01%    100.00% # Reads before turning the bus around for writes
system.mem_ctrls.rdPerTurnAround::2560-3071            1      0.00%    100.00% # Reads before turning the bus around for writes
system.mem_ctrls.rdPerTurnAround::3072-3583            1      0.00%    100.00% # Reads before turning the bus around for writes
system.mem_ctrls.rdPerTurnAround::12288-12799            1      0.00%    100.00% # Reads before turning the bus around for writes
system.mem_ctrls.rdPerTurnAround::total         73565                       # Reads before turning the bus around for writes
system.mem_ctrls.rdQLenPdf::0                 2169382                       # What read queue length does an incoming req see
system.mem_ctrls.rdQLenPdf::1                   30562                       # What read queue length does an incoming req see
system.mem_ctrls.rdQLenPdf::2                    2780                       # What read queue length does an incoming req see
system.mem_ctrls.rdQLenPdf::3                    2263                       # What read queue length does an incoming req see
system.mem_ctrls.rdQLenPdf::4                       0                       # What read queue length does an incoming req see
system.mem_ctrls.rdQLenPdf::5                       0                       # What read queue length does an incoming req see
system.mem_ctrls.rdQLenPdf::6                       0                       # What read queue length does an incoming req see
system.mem_ctrls.rdQLenPdf::7                       0                       # What read queue length does an incoming req see
system.mem_ctrls.rdQLenPdf::8                       0                       # What read queue length does an incoming req see
system.mem_ctrls.rdQLenPdf::9                       0                       # What read queue length does an incoming req see
system.mem_ctrls.rdQLenPdf::10                      0                       # What read queue length does an incoming req see
system.mem_ctrls.rdQLenPdf::11                      0                       # What read queue length does an incoming req see
system.mem_ctrls.rdQLenPdf::12                      0                       # What read queue length does an incoming req see
system.mem_ctrls.rdQLenPdf::13                      0                       # What read queue length does an incoming req see
system.mem_ctrls.rdQLenPdf::14                      0                       # What read queue length does an incoming req see
system.mem_ctrls.rdQLenPdf::15                      0                       # What read queue length does an incoming req see
system.mem_ctrls.rdQLenPdf::16                      0                       # What read queue length does an incoming req see
system.mem_ctrls.rdQLenPdf::17                      0                       # What read queue length does an incoming req see
system.mem_ctrls.rdQLenPdf::18                      0                       # What read queue length does an incoming req see
system.mem_ctrls.rdQLenPdf::19                      0                       # What read queue length does an incoming req see
system.mem_ctrls.rdQLenPdf::20                      0                       # What read queue length does an incoming req see
system.mem_ctrls.rdQLenPdf::21                      0                       # What read queue length does an incoming req see
system.mem_ctrls.rdQLenPdf::22                      0                       # What read queue length does an incoming req see
system.mem_ctrls.rdQLenPdf::23                      0                       # What read queue length does an incoming req see
system.mem_ctrls.rdQLenPdf::24                      0                       # What read queue length does an incoming req see
system.mem_ctrls.rdQLenPdf::25                      0                       # What read queue length does an incoming req see
system.mem_ctrls.rdQLenPdf::26                      0                       # What read queue length does an incoming req see
system.mem_ctrls.rdQLenPdf::27                      0                       # What read queue length does an incoming req see
system.mem_ctrls.rdQLenPdf::28                      0                       # What read queue length does an incoming req see
system.mem_ctrls.rdQLenPdf::29                      0                       # What read queue length does an incoming req see
system.mem_ctrls.rdQLenPdf::30                      0                       # What read queue length does an incoming req see
system.mem_ctrls.rdQLenPdf::31                      0                       # What read queue length does an incoming req see
system.mem_ctrls.readBursts                   2205198                       # Number of DRAM read bursts, including those serviced by the write queue
system.mem_ctrls.readPktSize::0                     0                       # Read request sizes (log2)
system.mem_ctrls.readPktSize::1                     0                       # Read request sizes (log2)
system.mem_ctrls.readPktSize::2                     0                       # Read request sizes (log2)
system.mem_ctrls.readPktSize::3                     0                       # Read request sizes (log2)
system.mem_ctrls.readPktSize::4                     0                       # Read request sizes (log2)
[...]
system.mem_ctrls.wrQLenPdf::26                  73595                       # What write queue length does an incoming req see
system.mem_ctrls.wrQLenPdf::27                  73567                       # What write queue length does an incoming req see
system.mem_ctrls.wrQLenPdf::28                  73575                       # What write queue length does an incoming req see
system.mem_ctrls.wrQLenPdf::29                  73755                       # What write queue length does an incoming req see
system.mem_ctrls.wrQLenPdf::30                  73697                       # What write queue length does an incoming req see
system.mem_ctrls.wrQLenPdf::31                  73678                       # What write queue length does an incoming req see
system.mem_ctrls.wrQLenPdf::32                  73677                       # What write queue length does an incoming req see
system.mem_ctrls.wrQLenPdf::33                     47                       # What write queue length does an incoming req see
system.mem_ctrls.wrQLenPdf::34                      9                       # What write queue length does an incoming req see
system.mem_ctrls.wrQLenPdf::35                      5                       # What write queue length does an incoming req see
system.mem_ctrls.wrQLenPdf::36                      0                       # What write queue length does an incoming req see
system.mem_ctrls.wrQLenPdf::37                      0                       # What write queue length does an incoming req see
system.mem_ctrls.wrQLenPdf::38                      0                       # What write queue length does an incoming req see
system.mem_ctrls.wrQLenPdf::39                      0                       # What write queue length does an incoming req see
system.mem_ctrls.wrQLenPdf::40                      0                       # What write queue length does an incoming req see
system.mem_ctrls.wrQLenPdf::41                      0                       # What write queue length does an incoming req see
system.mem_ctrls.wrQLenPdf::42                      0                       # What write queue length does an incoming req see
system.mem_ctrls.wrQLenPdf::43                      0                       # What write queue length does an incoming req see
system.mem_ctrls.wrQLenPdf::44                      0                       # What write queue length does an incoming req see
system.mem_ctrls.wrQLenPdf::45                      0                       # What write queue length does an incoming req see
system.mem_ctrls.wrQLenPdf::46                      0                       # What write queue length does an incoming req see
system.mem_ctrls.wrQLenPdf::47                      0                       # What write queue length does an incoming req see
system.mem_ctrls.wrQLenPdf::48                      0                       # What write queue length does an incoming req see
system.mem_ctrls.wrQLenPdf::49                      0                       # What write queue length does an incoming req see
system.mem_ctrls.wrQLenPdf::50                      0                       # What write queue length does an incoming req see
system.mem_ctrls.wrQLenPdf::51                      0                       # What write queue length does an incoming req see
system.mem_ctrls.wrQLenPdf::52                      0                       # What write queue length does an incoming req see
system.mem_ctrls.wrQLenPdf::53                      0                       # What write queue length does an incoming req see
system.mem_ctrls.wrQLenPdf::54                      0                       # What write queue length does an incoming req see
system.mem_ctrls.wrQLenPdf::55                      0                       # What write queue length does an incoming req see
system.mem_ctrls.wrQLenPdf::56                      0                       # What write queue length does an incoming req see
system.mem_ctrls.wrQLenPdf::57                      0                       # What write queue length does an incoming req see
system.mem_ctrls.wrQLenPdf::58                      0                       # What write queue length does an incoming req see
system.mem_ctrls.wrQLenPdf::59                      0                       # What write queue length does an incoming req see
system.mem_ctrls.wrQLenPdf::60                      0                       # What write queue length does an incoming req see
system.mem_ctrls.wrQLenPdf::61                      0                       # What write queue length does an incoming req see
system.mem_ctrls.wrQLenPdf::62                      0                       # What write queue length does an incoming req see
system.mem_ctrls.wrQLenPdf::63                      0                       # What write queue length does an incoming req see
system.mem_ctrls.writeBursts                  1183830                       # Number of DRAM write bursts, including those merged in the write queue
system.mem_ctrls.writePktSize::0                    0                       # Write request sizes (log2)
system.mem_ctrls.writePktSize::1                    0                       # Write request sizes (log2)
system.mem_ctrls.writePktSize::2                    0                       # Write request sizes (log2)
system.mem_ctrls.writePktSize::3                    0                       # Write request sizes (log2)
system.mem_ctrls.writePktSize::4                    0                       # Write request sizes (log2)
system.mem_ctrls.writePktSize::5                    0                       # Write request sizes (log2)
system.mem_ctrls.writePktSize::6              1183830                       # Write request sizes (log2)
system.mem_ctrls.writeReqs                    1183830                       # Number of write requests accepted
system.mem_ctrls.writeRowHitRate                88.25                       # Row buffer hit rate for writes
system.mem_ctrls.writeRowHits                 1044697                       # Number of row buffer hits during writes
system.mem_ctrls_0.actBackEnergy          25514438610                       # Energy for active background per rank (pJ)
system.mem_ctrls_0.actEnergy               1474502820                       # Energy for activate commands per rank (pJ)
system.mem_ctrls_0.actPowerDownEnergy     85299773250                       # Energy for active power-down per rank (pJ)
system.mem_ctrls_0.averagePower            488.718550                       # Core power per rank (mW)
system.mem_ctrls_0.memoryStateTime::IDLE    977815250                       # Time in different power states
system.mem_ctrls_0.memoryStateTime::REF    9642880000                       # Time in different power states
system.mem_ctrls_0.memoryStateTime::SREF  98323094250                       # Time in different power states
system.mem_ctrls_0.memoryStateTime::PRE_PDN  43893874650                       # Time in different power states
system.mem_ctrls_0.memoryStateTime::ACT   47815592387                       # Time in different power states
system.mem_ctrls_0.memoryStateTime::ACT_PDN 187063194963                       # Time in different power states
system.mem_ctrls_0.preBackEnergy            947507520                       # Energy for precharge background per rank (pJ)
system.mem_ctrls_0.preEnergy                783713040                       # Energy for precharge commands per rank (pJ)
system.mem_ctrls_0.prePowerDownEnergy     16855234560                       # Energy for precharge power-down per rank (pJ)
system.mem_ctrls_0.readEnergy              7877005080                       # Energy for read commands per rank (pJ)
system.mem_ctrls_0.refreshEnergy         22795768320.000004                       # Energy for refresh commands per rank (pJ)
system.mem_ctrls_0.selfRefreshEnergy      24834565080                       # Energy for self refresh per rank (pJ)
system.mem_ctrls_0.totalEnergy           189484222080                       # Total energy per rank (pJ)
system.mem_ctrls_0.totalIdleTime         329279584863                       # Total Idle time Per DRAM Rank
system.mem_ctrls_0.writeEnergy             3093408540                       # Energy for write commands per rank (pJ)
system.mem_ctrls_1.actBackEnergy          25578808140                       # Energy for active background per rank (pJ)
system.mem_ctrls_1.actEnergy               1451454900                       # Energy for activate commands per rank (pJ)
system.mem_ctrls_1.actPowerDownEnergy     85480085910                       # Energy for active power-down per rank (pJ)
system.mem_ctrls_1.averagePower            488.268446                       # Core power per rank (mW)
system.mem_ctrls_1.memoryStateTime::IDLE    972647750                       # Time in different power states
system.mem_ctrls_1.memoryStateTime::REF    9624160000                       # Time in different power states
system.mem_ctrls_1.memoryStateTime::SREF  98896589250                       # Time in different power states
system.mem_ctrls_1.memoryStateTime::PRE_PDN  42807204265                       # Time in different power states
system.mem_ctrls_1.memoryStateTime::ACT   47958523121                       # Time in different power states
system.mem_ctrls_1.memoryStateTime::ACT_PDN 187457327114                       # Time in different power states
system.mem_ctrls_1.preBackEnergy            938731200                       # Energy for precharge background per rank (pJ)
system.mem_ctrls_1.preEnergy                771447600                       # Energy for precharge commands per rank (pJ)
system.mem_ctrls_1.prePowerDownEnergy     16437910560                       # Energy for precharge power-down per rank (pJ)
system.mem_ctrls_1.readEnergy              7866602100                       # Energy for read commands per rank (pJ)
system.mem_ctrls_1.refreshEnergy         22751514240.000004                       # Energy for refresh commands per rank (pJ)
system.mem_ctrls_1.selfRefreshEnergy      24938963280                       # Energy for self refresh per rank (pJ)
system.mem_ctrls_1.totalEnergy           189309709080                       # Total energy per rank (pJ)
system.mem_ctrls_1.totalIdleTime         329160836629                       # Total Idle time Per DRAM Rank
system.mem_ctrls_1.writeEnergy             3086090100                       # Energy for write commands per rank (pJ)
system.membus.pkt_count_system.l2.mem_side::system.mem_ctrls.port      6598672                       # Packet count per connected master and slave (bytes)
system.membus.pkt_count_system.l2.mem_side::total      6598672                       # Packet count per connected master and slave (bytes)
system.membus.pkt_count::total                6598672                       # Packet count per connected master and slave (bytes)
system.membus.pkt_size_system.l2.mem_side::system.mem_ctrls.port    216897792                       # Cumulative packet size per connected master and slave (bytes)
system.membus.pkt_size_system.l2.mem_side::total    216897792                       # Cumulative packet size per connected master and slave (bytes)
system.membus.pkt_size::total               216897792                       # Cumulative packet size per connected master and slave (bytes)
system.membus.pwrStateResidencyTicks::UNDEFINED 387716451500                       # Cumulative time (in ticks) in various power states
system.membus.reqLayer2.occupancy          9161855900                       # Layer occupancy (ticks)
system.membus.reqLayer2.utilization               2.4                       # Layer utilization (%)
system.membus.respLayer1.occupancy        11634224201                       # Layer occupancy (ticks)
system.membus.respLayer1.utilization              3.0                       # Layer utilization (%)
system.membus.snoopTraffic                          0                       # Total snoop traffic (bytes)
system.membus.snoop_fanout::samples           2205198                       # Request fanout histogram
system.membus.snoop_fanout::mean                    0                       # Request fanout histogram
system.membus.snoop_fanout::stdev                   0                       # Request fanout histogram
system.membus.snoop_fanout::underflows              0      0.00%      0.00% # Request fanout histogram
system.membus.snoop_fanout::0                 2205198    100.00%    100.00% # Request fanout histogram
system.membus.snoop_fanout::1                       0      0.00%    100.00% # Request fanout histogram
system.membus.snoop_fanout::overflows               0      0.00%    100.00% # Request fanout histogram
system.membus.snoop_fanout::min_value               0                       # Request fanout histogram
system.membus.snoop_fanout::max_value               0                       # Request fanout histogram
system.membus.snoop_fanout::total             2205198                       # Request fanout histogram
system.membus.snoop_filter.hit_multi_requests            0                       # Number of requests hitting in the snoop filter with multiple (>1) holders of the requested data.
system.membus.snoop_filter.hit_multi_snoops            0                       # Number of snoops hitting in the snoop filter with multiple (>1) holders of the requested data.
system.membus.snoop_filter.hit_single_requests      2188276                       # Number of requests hitting in the snoop filter with a single holder of the requested data.
system.membus.snoop_filter.hit_single_snoops            0                       # Number of snoops hitting in the snoop filter with a single holder of the requested data.
system.membus.snoop_filter.tot_requests       4393474                       # Total number of requests made to the snoop filter.
system.membus.snoop_filter.tot_snoops               0                       # Total number of snoops made to the snoop filter.
system.membus.snoops                                0                       # Total snoops (count)
system.membus.trans_dist::ReadResp            1046666                       # Transaction distribution
system.membus.trans_dist::WritebackDirty      1183830                       # Transaction distribution
system.membus.trans_dist::CleanEvict          1004446                       # Transaction distribution
system.membus.trans_dist::ReadExReq           1158532                       # Transaction distribution
system.membus.trans_dist::ReadExResp          1158532                       # Transaction distribution
system.membus.trans_dist::ReadSharedReq       1046666                       # Transaction distribution
system.pwrStateResidencyTicks::UNDEFINED 387716451500                       # Cumulative time (in ticks) in various power states
system.tol2bus.pkt_count_system.cpu.icache.mem_side::system.l2.cpu_side         1060                       # Packet count per connected master and slave (bytes)
system.tol2bus.pkt_count_system.cpu.dcache.mem_side::system.l2.cpu_side      7389367                       # Packet count per connected master and slave (bytes)
system.tol2bus.pkt_count::total               7390427                       # Packet count per connected master and slave (bytes)
system.tol2bus.pkt_size_system.cpu.icache.mem_side::system.l2.cpu_side        34112                       # Cumulative packet size per connected master and slave (bytes)
system.tol2bus.pkt_size_system.cpu.dcache.mem_side::system.l2.cpu_side    250839104                       # Cumulative packet size per connected master and slave (bytes)
system.tol2bus.pkt_size::total              250873216                       # Cumulative packet size per connected master and slave (bytes)
system.tol2bus.pwrStateResidencyTicks::UNDEFINED 387716451500                       # Cumulative time (in ticks) in various power states
system.tol2bus.reqLayer0.occupancy         3918609500                       # Layer occupancy (ticks)
system.tol2bus.reqLayer0.utilization              1.0                       # Layer utilization (%)
system.tol2bus.respLayer0.occupancy            790500                       # Layer occupancy (ticks)
system.tol2bus.respLayer0.utilization             0.0                       # Layer utilization (%)
system.tol2bus.respLayer1.occupancy        3695707500                       # Layer occupancy (ticks)
system.tol2bus.respLayer1.utilization             1.0                       # Layer utilization (%)
system.tol2bus.snoopTraffic                  75765120                       # Total snoop traffic (bytes)
system.tol2bus.snoop_fanout::samples          4658700                       # Request fanout histogram
system.tol2bus.snoop_fanout::mean            0.011211                       # Request fanout histogram
system.tol2bus.snoop_fanout::stdev           0.105287                       # Request fanout histogram
system.tol2bus.snoop_fanout::underflows             0      0.00%      0.00% # Request fanout histogram
system.tol2bus.snoop_fanout::0                4606471     98.88%     98.88% # Request fanout histogram
system.tol2bus.snoop_fanout::1                  52229      1.12%    100.00% # Request fanout histogram
system.tol2bus.snoop_fanout::2                      0      0.00%    100.00% # Request fanout histogram
system.tol2bus.snoop_fanout::3                      0      0.00%    100.00% # Request fanout histogram
system.tol2bus.snoop_fanout::4                      0      0.00%    100.00% # Request fanout histogram
system.tol2bus.snoop_fanout::overflows              0      0.00%    100.00% # Request fanout histogram
system.tol2bus.snoop_fanout::min_value              0                       # Request fanout histogram
system.tol2bus.snoop_fanout::max_value              1                       # Request fanout histogram
system.tol2bus.snoop_fanout::total            4658700                       # Request fanout histogram
system.tol2bus.snoop_filter.hit_multi_requests            1                       # Number of requests hitting in the snoop filter with multiple (>1) holders of the requested data.
system.tol2bus.snoop_filter.hit_multi_snoops            0                       # Number of snoops hitting in the snoop filter with multiple (>1) holders of the requested data.
system.tol2bus.snoop_filter.hit_single_requests      2461763                       # Number of requests hitting in the snoop filter with a single holder of the requested data.
system.tol2bus.snoop_filter.hit_single_snoops        52228                       # Number of snoops hitting in the snoop filter with a single holder of the requested data.
system.tol2bus.snoop_filter.tot_requests      4926095                       # Total number of requests made to the snoop filter.
system.tol2bus.snoop_filter.tot_snoops          52228                       # Total number of snoops made to the snoop filter.
system.tol2bus.snoops                         2194368                       # Total snoops (count)
system.tol2bus.trans_dist::ReadResp           1221021                       # Transaction distribution
system.tol2bus.trans_dist::WritebackDirty      2639386                       # Transaction distribution
system.tol2bus.trans_dist::WritebackClean            6                       # Transaction distribution
system.tol2bus.trans_dist::CleanEvict         2016739                       # Transaction distribution
system.tol2bus.trans_dist::ReadExReq          1243311                       # Transaction distribution
system.tol2bus.trans_dist::ReadExResp         1243311                       # Transaction distribution
system.tol2bus.trans_dist::ReadCleanReq           527                       # Transaction distribution
system.tol2bus.trans_dist::ReadSharedReq      1220494                       # Transaction distribution
system.voltage_domain.voltage                       1                       # Voltage in Volts

---------- End Simulation Statistics   ----------
