
---------- Begin Simulation Statistics ----------
final_tick                               959140174500                       # Number of ticks from beginning of simulation (restored from checkpoints and never reset)
host_inst_rate                                 269400                       # Simulator instruction rate (inst/s)
host_mem_usage                                 821636                       # Number of bytes of host memory used
host_op_rate                                   487974                       # Simulator op (including micro ops) rate (op/s)
host_seconds                                   371.20                       # Real time elapsed on the host
host_tick_rate                             2583919129                       # Simulator tick rate (ticks/s)
sim_freq                                 1000000000000                       # Frequency of simulated ticks
sim_insts                                   100000001                       # Number of instructions simulated
sim_ops                                     181133978                       # Number of ops (including micro ops) simulated
sim_seconds                                  0.959140                       # Number of seconds simulated
sim_ticks                                959140174500                       # Number of ticks simulated
system.clk_domain.clock                          1000                       # Clock period in ticks
system.cpu.Branches                          13383360                       # Number of branches fetched
system.cpu.apic_clk_domain.clock                 8000                       # Clock period in ticks
system.cpu.committedInsts                   100000001                       # Number of instructions committed
system.cpu.committedOps                     181133978                       # Number of ops (including micro ops) committed
system.cpu.dcache.ReadReq_accesses::.cpu.data     14664116                       # number of ReadReq accesses(hits+misses)
system.cpu.dcache.ReadReq_accesses::total     14664116                       # number of ReadReq accesses(hits+misses)
system.cpu.dcache.ReadReq_avg_miss_latency::.cpu.data 60497.739829                       # average ReadReq miss latency
system.cpu.dcache.ReadReq_avg_miss_latency::total 60497.739829                       # average ReadReq miss latency
system.cpu.dcache.ReadReq_avg_mshr_miss_latency::.cpu.data 59497.739829                       # average ReadReq mshr miss latency
system.cpu.dcache.ReadReq_avg_mshr_miss_latency::total 59497.739829                       # average ReadReq mshr miss latency
system.cpu.dcache.ReadReq_hits::.cpu.data     14624296                       # number of ReadReq hits
system.cpu.dcache.ReadReq_hits::total        14624296                       # number of ReadReq hits
system.cpu.dcache.ReadReq_miss_latency::.cpu.data   2409020000                       # number of ReadReq miss cycles
system.cpu.dcache.ReadReq_miss_latency::total   2409020000                       # number of ReadReq miss cycles
system.cpu.dcache.ReadReq_miss_rate::.cpu.data     0.002715                       # miss rate for ReadReq accesses
system.cpu.dcache.ReadReq_miss_rate::total     0.002715                       # miss rate for ReadReq accesses
system.cpu.dcache.ReadReq_misses::.cpu.data        39820                       # number of ReadReq misses
system.cpu.dcache.ReadReq_misses::total         39820                       # number of ReadReq misses
system.cpu.dcache.ReadReq_mshr_miss_latency::.cpu.data   2369200000                       # number of ReadReq MSHR miss cycles
system.cpu.dcache.ReadReq_mshr_miss_latency::total   2369200000                       # number of ReadReq MSHR miss cycles
system.cpu.dcache.ReadReq_mshr_miss_rate::.cpu.data     0.002715                       # mshr miss rate for ReadReq accesses
system.cpu.dcache.ReadReq_mshr_miss_rate::total     0.002715                       # mshr miss rate for ReadReq accesses
system.cpu.dcache.ReadReq_mshr_misses::.cpu.data        39820                       # number of ReadReq MSHR misses
system.cpu.dcache.ReadReq_mshr_misses::total        39820                       # number of ReadReq MSHR misses
system.cpu.dcache.WriteReq_accesses::.cpu.data     70485123                       # number of WriteReq accesses(hits+misses)
system.cpu.dcache.WriteReq_accesses::total     70485123                       # number of WriteReq accesses(hits+misses)
system.cpu.dcache.WriteReq_avg_miss_latency::.cpu.data 89162.416804                       # average WriteReq miss latency
system.cpu.dcache.WriteReq_avg_miss_latency::total 89162.416804                       # average WriteReq miss latency
system.cpu.dcache.WriteReq_avg_mshr_miss_latency::.cpu.data 88162.416804                       # average WriteReq mshr miss latency
system.cpu.dcache.WriteReq_avg_mshr_miss_latency::total 88162.416804                       # average WriteReq mshr miss latency
system.cpu.dcache.WriteReq_hits::.cpu.data     62179012                       # number of WriteReq hits
system.cpu.dcache.WriteReq_hits::total       62179012                       # number of WriteReq hits
system.cpu.dcache.WriteReq_miss_latency::.cpu.data 740592931000                       # number of WriteReq miss cycles
system.cpu.dcache.WriteReq_miss_latency::total 740592931000                       # number of WriteReq miss cycles
system.cpu.dcache.WriteReq_miss_rate::.cpu.data     0.117842                       # miss rate for WriteReq accesses
system.cpu.dcache.WriteReq_miss_rate::total     0.117842                       # miss rate for WriteReq accesses
system.cpu.dcache.WriteReq_misses::.cpu.data      8306111                       # number of WriteReq misses
system.cpu.dcache.WriteReq_misses::total      8306111                       # number of WriteReq misses
system.cpu.dcache.WriteReq_mshr_miss_latency::.cpu.data 732286820000                       # number of WriteReq MSHR miss cycles
system.cpu.dcache.WriteReq_mshr_miss_latency::total 732286820000                       # number of WriteReq MSHR miss cycles
system.cpu.dcache.WriteReq_mshr_miss_rate::.cpu.data     0.117842                       # mshr miss rate for WriteReq accesses
system.cpu.dcache.WriteReq_mshr_miss_rate::total     0.117842                       # mshr miss rate for WriteReq accesses
system.cpu.dcache.WriteReq_mshr_misses::.cpu.data      8306111                       # number of WriteReq MSHR misses
system.cpu.dcache.WriteReq_mshr_misses::total      8306111                       # number of WriteReq MSHR misses
system.cpu.dcache.avg_blocked_cycles::no_mshrs          nan                       # average number of cycles each access was blocked
system.cpu.dcache.avg_blocked_cycles::no_targets          nan                       # average number of cycles each access was blocked
system.cpu.dcache.blocked::no_mshrs                 0                       # number of cycles access was blocked
system.cpu.dcache.blocked::no_targets               0                       # number of cycles access was blocked
system.cpu.dcache.blocked_cycles::no_mshrs            0                       # number of cycles access was blocked
system.cpu.dcache.blocked_cycles::no_targets            0                       # number of cycles access was blocked
system.cpu.dcache.demand_accesses::.cpu.data     85149239                       # number of demand (read+write) accesses
system.cpu.dcache.demand_accesses::total     85149239                       # number of demand (read+write) accesses
system.cpu.dcache.demand_avg_miss_latency::.cpu.data 89025.652261                       # average overall miss latency
system.cpu.dcache.demand_avg_miss_latency::total 89025.652261                       # average overall miss latency
system.cpu.dcache.demand_avg_mshr_miss_latency::.cpu.data 88025.652261                       # average overall mshr miss latency
system.cpu.dcache.demand_avg_mshr_miss_latency::total 88025.652261                       # average overall mshr miss latency
system.cpu.dcache.demand_hits::.cpu.data     76803308                       # number of demand (read+write) hits
system.cpu.dcache.demand_hits::total         76803308                       # number of demand (read+write) hits
system.cpu.dcache.demand_miss_latency::.cpu.data 743001951000                       # number of demand (read+write) miss cycles
system.cpu.dcache.demand_miss_latency::total 743001951000                       # number of demand (read+write) miss cycles
system.cpu.dcache.demand_miss_rate::.cpu.data     0.098015                       # miss rate for demand accesses
system.cpu.dcache.demand_miss_rate::total     0.098015                       # miss rate for demand accesses
system.cpu.dcache.demand_misses::.cpu.data      8345931                       # number of demand (read+write) misses
system.cpu.dcache.demand_misses::total        8345931                       # number of demand (read+write) misses
system.cpu.dcache.demand_mshr_miss_latency::.cpu.data 734656020000                       # number of demand (read+write) MSHR miss cycles
system.cpu.dcache.demand_mshr_miss_latency::total 734656020000                       # number of demand (read+write) MSHR miss cycles
system.cpu.dcache.demand_mshr_miss_rate::.cpu.data     0.098015                       # mshr miss rate for demand accesses
system.cpu.dcache.demand_mshr_miss_rate::total     0.098015                       # mshr miss rate for demand accesses
system.cpu.dcache.demand_mshr_misses::.cpu.data      8345931                       # number of demand (read+write) MSHR misses
system.cpu.dcache.demand_mshr_misses::total      8345931                       # number of demand (read+write) MSHR misses
system.cpu.dcache.overall_accesses::.cpu.data     85149239                       # number of overall (read+write) accesses
system.cpu.dcache.overall_accesses::total     85149239                       # number of overall (read+write) accesses
system.cpu.dcache.overall_avg_miss_latency::.cpu.data 89025.652261                       # average overall miss latency
system.cpu.dcache.overall_avg_miss_latency::total 89025.652261                       # average overall miss latency
system.cpu.dcache.overall_avg_mshr_miss_latency::.cpu.data 88025.652261                       # average overall mshr miss latency
system.cpu.dcache.overall_avg_mshr_miss_latency::total 88025.652261                       # average overall mshr miss latency
system.cpu.dcache.overall_hits::.cpu.data     76803308                       # number of overall hits
system.cpu.dcache.overall_hits::total        76803308                       # number of overall hits
system.cpu.dcache.overall_miss_latency::.cpu.data 743001951000                       # number of overall miss cycles
system.cpu.dcache.overall_miss_latency::total 743001951000                       # number of overall miss cycles
system.cpu.dcache.overall_miss_rate::.cpu.data     0.098015                       # miss rate for overall accesses
system.cpu.dcache.overall_miss_rate::total     0.098015                       # miss rate for overall accesses
system.cpu.dcache.overall_misses::.cpu.data      8345931                       # number of overall misses
system.cpu.dcache.overall_misses::total       8345931                       # number of overall misses
system.cpu.dcache.overall_mshr_miss_latency::.cpu.data 734656020000                       # number of overall MSHR miss cycles
system.cpu.dcache.overall_mshr_miss_latency::total 734656020000                       # number of overall MSHR miss cycles
system.cpu.dcache.overall_mshr_miss_rate::.cpu.data     0.098015                       # mshr miss rate for overall accesses
system.cpu.dcache.overall_mshr_miss_rate::total     0.098015                       # mshr miss rate for overall accesses
system.cpu.dcache.overall_mshr_misses::.cpu.data      8345931                       # number of overall MSHR misses
system.cpu.dcache.overall_mshr_misses::total      8345931                       # number of overall MSHR misses
system.cpu.dcache.pwrStateResidencyTicks::UNDEFINED 959140174500                       # Cumulative time (in ticks) in various power states
system.cpu.dcache.replacements                8345419                       # number of replacements
system.cpu.dcache.tags.age_task_id_blocks_1024::0           15                       # Occupied blocks per task id
system.cpu.dcache.tags.age_task_id_blocks_1024::1           37                       # Occupied blocks per task id
system.cpu.dcache.tags.age_task_id_blocks_1024::2          127                       # Occupied blocks per task id
system.cpu.dcache.tags.age_task_id_blocks_1024::3          201                       # Occupied blocks per task id
system.cpu.dcache.tags.age_task_id_blocks_1024::4          132                       # Occupied blocks per task id
system.cpu.dcache.tags.avg_refs             10.202485                       # Average number of references to valid blocks.
system.cpu.dcache.tags.data_accesses        178644409                       # Number of data accesses
system.cpu.dcache.tags.occ_blocks::.cpu.data   511.933704                       # Average occupied blocks per requestor
system.cpu.dcache.tags.occ_percent::.cpu.data     0.999871                       # Average percentage of cache occupancy
system.cpu.dcache.tags.occ_percent::total     0.999871                       # Average percentage of cache occupancy
system.cpu.dcache.tags.occ_task_id_blocks::1024          512                       # Occupied blocks per task id
system.cpu.dcache.tags.occ_task_id_percent::1024            1                       # Percentage of cache occupancy per task id
system.cpu.dcache.tags.pwrStateResidencyTicks::UNDEFINED 959140174500                       # Cumulative time (in ticks) in various power states
system.cpu.dcache.tags.sampled_refs           8345931                       # Sample count of references to valid blocks.
system.cpu.dcache.tags.tag_accesses         178644409                       # Number of tag accesses
system.cpu.dcache.tags.tagsinuse           511.933704                       # Cycle average of tags in use
system.cpu.dcache.tags.total_refs            85149239                       # Total number of references to valid blocks.
system.cpu.dcache.tags.warmup_cycle            181500                       # Cycle when the warmup percentage was hit.
system.cpu.dcache.writebacks::.writebacks      8320432                       # number of writebacks
system.cpu.dcache.writebacks::total           8320432                       # number of writebacks
system.cpu.dtb.pwrStateResidencyTicks::UNDEFINED 959140174500                       # Cumulative time (in ticks) in various power states
system.cpu.dtb.rdAccesses                    14664116                       # TLB accesses on read requests
system.cpu.dtb.rdMisses                         12989                       # TLB misses on read requests
system.cpu.dtb.walker.pwrStateResidencyTicks::UNDEFINED 959140174500                       # Cumulative time (in ticks) in various power states
system.cpu.dtb.wrAccesses                    70485123                       # TLB accesses on write requests
system.cpu.dtb.wrMisses                        130894                       # TLB misses on write requests
system.cpu.dtb_walker_cache.avg_blocked_cycles::no_mshrs          nan                       # average number of cycles each access was blocked
system.cpu.dtb_walker_cache.avg_blocked_cycles::no_targets          nan                       # average number of cycles each access was blocked
system.cpu.dtb_walker_cache.blocked::no_mshrs            0                       # number of cycles access was blocked
system.cpu.dtb_walker_cache.blocked::no_targets            0                       # number of cycles access was blocked
system.cpu.dtb_walker_cache.blocked_cycles::no_mshrs            0                       # number of cycles access was blocked
system.cpu.dtb_walker_cache.blocked_cycles::no_targets            0                       # number of cycles access was blocked
system.cpu.dtb_walker_cache.pwrStateResidencyTicks::UNDEFINED 959140174500                       # Cumulative time (in ticks) in various power states
system.cpu.dtb_walker_cache.replacements            0                       # number of replacements
system.cpu.dtb_walker_cache.tags.avg_refs          nan                       # Average number of references to valid blocks.
system.cpu.dtb_walker_cache.tags.data_accesses            0                       # Number of data accesses
system.cpu.dtb_walker_cache.tags.pwrStateResidencyTicks::UNDEFINED 959140174500                       # Cumulative time (in ticks) in various power states
system.cpu.dtb_walker_cache.tags.sampled_refs            0                       # Sample count of references to valid blocks.
system.cpu.dtb_walker_cache.tags.tag_accesses            0                       # Number of tag accesses
system.cpu.dtb_walker_cache.tags.tagsinuse            0                       # Cycle average of tags in use
system.cpu.dtb_walker_cache.tags.total_refs            0                       # Total number of references to valid blocks.
system.cpu.dtb_walker_cache.tags.warmup_cycle            0                       # Cycle when the warmup percentage was hit.
system.cpu.icache.ReadReq_accesses::.cpu.inst    139152120                       # number of ReadReq accesses(hits+misses)
system.cpu.icache.ReadReq_accesses::total    139152120                       # number of ReadReq accesses(hits+misses)
system.cpu.icache.ReadReq_avg_miss_latency::.cpu.inst 84636.135222                       # average ReadReq miss latency
system.cpu.icache.ReadReq_avg_miss_latency::total 84636.135222                       # average ReadReq miss latency
system.cpu.icache.ReadReq_avg_mshr_miss_latency::.cpu.inst 83636.135222                       # average ReadReq mshr miss latency
system.cpu.icache.ReadReq_avg_mshr_miss_latency::total 83636.135222                       # average ReadReq mshr miss latency
system.cpu.icache.ReadReq_hits::.cpu.inst    139149931                       # number of ReadReq hits
system.cpu.icache.ReadReq_hits::total       139149931                       # number of ReadReq hits
system.cpu.icache.ReadReq_miss_latency::.cpu.inst    185268500                       # number of ReadReq miss cycles
system.cpu.icache.ReadReq_miss_latency::total    185268500                       # number of ReadReq miss cycles
system.cpu.icache.ReadReq_miss_rate::.cpu.inst     0.000016                       # miss rate for ReadReq accesses
system.cpu.icache.ReadReq_miss_rate::total     0.000016                       # miss rate for ReadReq accesses
system.cpu.icache.ReadReq_misses::.cpu.inst         2189                       # number of ReadReq misses
system.cpu.icache.ReadReq_misses::total          2189                       # number of ReadReq misses
system.cpu.icache.ReadReq_mshr_miss_latency::.cpu.inst    183079500                       # number of ReadReq MSHR miss cycles
system.cpu.icache.ReadReq_mshr_miss_latency::total    183079500                       # number of ReadReq MSHR miss cycles
system.cpu.icache.ReadReq_mshr_miss_rate::.cpu.inst     0.000016                       # mshr miss rate for ReadReq accesses
system.cpu.icache.ReadReq_mshr_miss_rate::total     0.000016                       # mshr miss rate for ReadReq accesses
system.cpu.icache.ReadReq_mshr_misses::.cpu.inst         2189                       # number of ReadReq MSHR misses
system.cpu.icache.ReadReq_mshr_misses::total         2189                       # number of ReadReq MSHR misses
system.cpu.icache.avg_blocked_cycles::no_mshrs          nan                       # average number of cycles each access was blocked
system.cpu.icache.avg_blocked_cycles::no_targets          nan                       # average number of cycles each access was blocked
system.cpu.icache.blocked::no_mshrs                 0                       # number of cycles access was blocked
system.cpu.icache.blocked::no_targets               0                       # number of cycles access was blocked
system.cpu.icache.blocked_cycles::no_mshrs            0                       # number of cycles access was blocked
system.cpu.icache.blocked_cycles::no_targets            0                       # number of cycles access was blocked
system.cpu.icache.demand_accesses::.cpu.inst    139152120                       # number of demand (read+write) accesses
system.cpu.icache.demand_accesses::total    139152120                       # number of demand (read+write) accesses
system.cpu.icache.demand_avg_miss_latency::.cpu.inst 84636.135222                       # average overall miss latency
system.cpu.icache.demand_avg_miss_latency::total 84636.135222                       # average overall miss latency
system.cpu.icache.demand_avg_mshr_miss_latency::.cpu.inst 83636.135222                       # average overall mshr miss latency
system.cpu.icache.demand_avg_mshr_miss_latency::total 83636.135222                       # average overall mshr miss latency
system.cpu.icache.demand_hits::.cpu.inst    139149931                       # number of demand (read+write) hits
system.cpu.icache.demand_hits::total        139149931                       # number of demand (read+write) hits
system.cpu.icache.demand_miss_latency::.cpu.inst    185268500                       # number of demand (read+write) miss cycles
system.cpu.icache.demand_miss_latency::total    185268500                       # number of demand (read+write) miss cycles
system.cpu.icache.demand_miss_rate::.cpu.inst     0.000016                       # miss rate for demand accesses
system.cpu.icache.demand_miss_rate::total     0.000016                       # miss rate for demand accesses
system.cpu.icache.demand_misses::.cpu.inst         2189                       # number of demand (read+write) misses
system.cpu.icache.demand_misses::total           2189                       # number of demand (read+write) misses
system.cpu.icache.demand_mshr_miss_latency::.cpu.inst    183079500                       # number of demand (read+write) MSHR miss cycles
system.cpu.icache.demand_mshr_miss_latency::total    183079500                       # number of demand (read+write) MSHR miss cycles
system.cpu.icache.demand_mshr_miss_rate::.cpu.inst     0.000016                       # mshr miss rate for demand accesses
system.cpu.icache.demand_mshr_miss_rate::total     0.000016                       # mshr miss rate for demand accesses
system.cpu.icache.demand_mshr_misses::.cpu.inst         2189                       # number of demand (read+write) MSHR misses
system.cpu.icache.demand_mshr_misses::total         2189                       # number of demand (read+write) MSHR misses
system.cpu.icache.overall_accesses::.cpu.inst    139152120                       # number of overall (read+write) accesses
system.cpu.icache.overall_accesses::total    139152120                       # number of overall (read+write) accesses
system.cpu.icache.overall_avg_miss_latency::.cpu.inst 84636.135222                       # average overall miss latency
system.cpu.icache.overall_avg_miss_latency::total 84636.135222                       # average overall miss latency
system.cpu.icache.overall_avg_mshr_miss_latency::.cpu.inst 83636.135222                       # average overall mshr miss latency
system.cpu.icache.overall_avg_mshr_miss_latency::total 83636.135222                       # average overall mshr miss latency
system.cpu.icache.overall_hits::.cpu.inst    139149931                       # number of overall hits
system.cpu.icache.overall_hits::total       139149931                       # number of overall hits
system.cpu.icache.overall_miss_latency::.cpu.inst    185268500                       # number of overall miss cycles
system.cpu.icache.overall_miss_latency::total    185268500                       # number of overall miss cycles
system.cpu.icache.overall_miss_rate::.cpu.inst     0.000016                       # miss rate for overall accesses
system.cpu.icache.overall_miss_rate::total     0.000016                       # miss rate for overall accesses
system.cpu.icache.overall_misses::.cpu.inst         2189                       # number of overall misses
system.cpu.icache.overall_misses::total          2189                       # number of overall misses
system.cpu.icache.overall_mshr_miss_latency::.cpu.inst    183079500                       # number of overall MSHR miss cycles
system.cpu.icache.overall_mshr_miss_latency::total    183079500                       # number of overall MSHR miss cycles
system.cpu.icache.overall_mshr_miss_rate::.cpu.inst     0.000016                       # mshr miss rate for overall accesses
system.cpu.icache.overall_mshr_miss_rate::total     0.000016                       # mshr miss rate for overall accesses
system.cpu.icache.overall_mshr_misses::.cpu.inst         2189                       # number of overall MSHR misses
system.cpu.icache.overall_mshr_misses::total         2189                       # number of overall MSHR misses
system.cpu.icache.pwrStateResidencyTicks::UNDEFINED 959140174500                       # Cumulative time (in ticks) in various power states
system.cpu.icache.replacements                    789                       # number of replacements
system.cpu.icache.tags.age_task_id_blocks_1024::3            1                       # Occupied blocks per task id
system.cpu.icache.tags.age_task_id_blocks_1024::4         1399                       # Occupied blocks per task id
system.cpu.icache.tags.avg_refs          63568.807675                       # Average number of references to valid blocks.
system.cpu.icache.tags.data_accesses        278306429                       # Number of data accesses
system.cpu.icache.tags.occ_blocks::.cpu.inst   619.308693                       # Average occupied blocks per requestor
system.cpu.icache.tags.occ_percent::.cpu.inst     0.302397                       # Average percentage of cache occupancy
system.cpu.icache.tags.occ_percent::total     0.302397                       # Average percentage of cache occupancy
system.cpu.icache.tags.occ_task_id_blocks::1024         1400                       # Occupied blocks per task id
system.cpu.icache.tags.occ_task_id_percent::1024     0.683594                       # Percentage of cache occupancy per task id
system.cpu.icache.tags.pwrStateResidencyTicks::UNDEFINED 959140174500                       # Cumulative time (in ticks) in various power states
system.cpu.icache.tags.sampled_refs              2189                       # Sample count of references to valid blocks.
system.cpu.icache.tags.tag_accesses         278306429                       # Number of tag accesses
system.cpu.icache.tags.tagsinuse           619.308693                       # Cycle average of tags in use
system.cpu.icache.tags.total_refs           139152120                       # Total number of references to valid blocks.
system.cpu.icache.tags.warmup_cycle             87500                       # Cycle when the warmup percentage was hit.
system.cpu.icache.writebacks::.writebacks          789                       # number of writebacks
system.cpu.icache.writebacks::total               789                       # number of writebacks
system.cpu.idle_fraction                            0                       # Percentage of idle cycles
system.cpu.interrupts.pwrStateResidencyTicks::UNDEFINED 959140174500                       # Cumulative time (in ticks) in various power states
system.cpu.itb.pwrStateResidencyTicks::UNDEFINED 959140174500                       # Cumulative time (in ticks) in various power states
system.cpu.itb.rdAccesses                           0                       # TLB accesses on read requests
system.cpu.itb.rdMisses                             0                       # TLB misses on read requests
system.cpu.itb.walker.pwrStateResidencyTicks::UNDEFINED 959140174500                       # Cumulative time (in ticks) in various power states
system.cpu.itb.wrAccesses                   139152120                       # TLB accesses on write requests
system.cpu.itb.wrMisses                            75                       # TLB misses on write requests
system.cpu.itb_walker_cache.avg_blocked_cycles::no_mshrs          nan                       # average number of cycles each access was blocked
system.cpu.itb_walker_cache.avg_blocked_cycles::no_targets          nan                       # average number of cycles each access was blocked
system.cpu.itb_walker_cache.blocked::no_mshrs            0                       # number of cycles access was blocked
system.cpu.itb_walker_cache.blocked::no_targets            0                       # number of cycles access was blocked
system.cpu.itb_walker_cache.blocked_cycles::no_mshrs            0                       # number of cycles access was blocked
system.cpu.itb_walker_cache.blocked_cycles::no_targets            0                       # number of cycles access was blocked
system.cpu.itb_walker_cache.pwrStateResidencyTicks::UNDEFINED 959140174500                       # Cumulative time (in ticks) in various power states
system.cpu.itb_walker_cache.replacements            0                       # number of replacements
system.cpu.itb_walker_cache.tags.avg_refs          nan                       # Average number of references to valid blocks.
system.cpu.itb_walker_cache.tags.data_accesses            0                       # Number of data accesses
system.cpu.itb_walker_cache.tags.pwrStateResidencyTicks::UNDEFINED 959140174500                       # Cumulative time (in ticks) in various power states
system.cpu.itb_walker_cache.tags.sampled_refs            0                       # Sample count of references to valid blocks.
system.cpu.itb_walker_cache.tags.tag_accesses            0                       # Number of tag accesses
system.cpu.itb_walker_cache.tags.tagsinuse            0                       # Cycle average of tags in use
system.cpu.itb_walker_cache.tags.total_refs            0                       # Total number of references to valid blocks.
system.cpu.itb_walker_cache.tags.warmup_cycle            0                       # Cycle when the warmup percentage was hit.
system.cpu.not_idle_fraction                        1                       # Percentage of non-idle cycles
system.cpu.numCycles                       1918280349                       # number of cpu cycles simulated
system.cpu.numWorkItemsCompleted                    0                       # number of work items this cpu completed
system.cpu.numWorkItemsStarted                      0                       # number of work items this cpu started
system.cpu.num_busy_cycles                 1918280349                       # Number of busy cycles
system.cpu.num_cc_register_reads             66390676                       # number of times the CC registers were read
system.cpu.num_cc_register_writes            58331008                       # number of times the CC registers were written
system.cpu.num_conditional_control_insts     12357318                       # number of instructions that are conditional controls
system.cpu.num_fp_alu_accesses               66079645                       # Number of float alu accesses
system.cpu.num_fp_insts                      66079645                       # number of float instructions
system.cpu.num_fp_register_reads             66107541                       # number of times the floating registers were read
system.cpu.num_fp_register_writes               34696                       # number of times the floating registers were written
system.cpu.num_func_calls                      481409                       # number of times a function call or return occured
system.cpu.num_idle_cycles                          0                       # Number of idle cycles
system.cpu.num_int_alu_accesses             180945640                       # Number of integer alu accesses
system.cpu.num_int_insts                    180945640                       # number of integer instructions
system.cpu.num_int_register_reads           393189365                       # number of times the integer registers were read
system.cpu.num_int_register_writes           97341166                       # number of times the integer registers were written
system.cpu.num_load_insts                    14663800                       # Number of load instructions
system.cpu.num_mem_refs                      85148913                       # number of memory refs
system.cpu.num_store_insts                   70485113                       # Number of store instructions
system.cpu.num_vec_alu_accesses                     0                       # Number of vector alu accesses
system.cpu.num_vec_insts                            0                       # number of vector instructions
system.cpu.num_vec_register_reads                   0                       # number of times the vector registers were read
system.cpu.num_vec_register_writes                  0                       # number of times the vector registers were written
system.cpu.op_class::No_OpClass                 17650      0.01%      0.01% # Class of executed instruction
system.cpu.op_class::IntAlu                  95763297     52.87%     52.88% # Class of executed instruction
system.cpu.op_class::IntMult                    94292      0.05%     52.93% # Class of executed instruction
system.cpu.op_class::IntDiv                     79926      0.04%     52.97% # Class of executed instruction
system.cpu.op_class::FloatAdd                    2214      0.00%     52.98% # Class of executed instruction
system.cpu.op_class::FloatCmp                       0      0.00%     52.98% # Class of executed instruction
system.cpu.op_class::FloatCvt                       0      0.00%     52.98% # Class of executed instruction
system.cpu.op_class::FloatMult                      0      0.00%     52.98% # Class of executed instruction
system.cpu.op_class::FloatMultAcc                   0      0.00%     52.98% # Class of executed instruction
system.cpu.op_class::FloatDiv                       0      0.00%     52.98% # Class of executed instruction
system.cpu.op_class::FloatMisc                      0      0.00%     52.98% # Class of executed instruction
system.cpu.op_class::FloatSqrt                      0      0.00%     52.98% # Class of executed instruction
system.cpu.op_class::SimdAdd                        0      0.00%     52.98% # Class of executed instruction
system.cpu.op_class::SimdAddAcc                     0      0.00%     52.98% # Class of executed instruction
system.cpu.op_class::SimdAlu                     4490      0.00%     52.98% # Class of executed instruction
system.cpu.op_class::SimdCmp                       12      0.00%     52.98% # Class of executed instruction
system.cpu.op_class::SimdCvt                     5116      0.00%     52.98% # Class of executed instruction
system.cpu.op_class::SimdMisc                   18029      0.01%     52.99% # Class of executed instruction
system.cpu.op_class::SimdMult                       0      0.00%     52.99% # Class of executed instruction
system.cpu.op_class::SimdMultAcc                    0      0.00%     52.99% # Class of executed instruction
system.cpu.op_class::SimdShift                      0      0.00%     52.99% # Class of executed instruction
system.cpu.op_class::SimdShiftAcc                   0      0.00%     52.99% # Class of executed instruction
system.cpu.op_class::SimdDiv                        0      0.00%     52.99% # Class of executed instruction
system.cpu.op_class::SimdSqrt                       0      0.00%     52.99% # Class of executed instruction
system.cpu.op_class::SimdFloatAdd                   0      0.00%     52.99% # Class of executed instruction
system.cpu.op_class::SimdFloatAlu                   0      0.00%     52.99% # Class of executed instruction
system.cpu.op_class::SimdFloatCmp                   0      0.00%     52.99% # Class of executed instruction
system.cpu.op_class::SimdFloatCvt                  29      0.00%     52.99% # Class of executed instruction
system.cpu.op_class::SimdFloatDiv                   5      0.00%     52.99% # Class of executed instruction
system.cpu.op_class::SimdFloatMisc                  0      0.00%     52.99% # Class of executed instruction
system.cpu.op_class::SimdFloatMult                  5      0.00%     52.99% # Class of executed instruction
system.cpu.op_class::SimdFloatMultAcc               0      0.00%     52.99% # Class of executed instruction
system.cpu.op_class::SimdFloatSqrt                  0      0.00%     52.99% # Class of executed instruction
system.cpu.op_class::SimdReduceAdd                  0      0.00%     52.99% # Class of executed instruction
system.cpu.op_class::SimdReduceAlu                  0      0.00%     52.99% # Class of executed instruction
system.cpu.op_class::SimdReduceCmp                  0      0.00%     52.99% # Class of executed instruction
system.cpu.op_class::SimdFloatReduceAdd             0      0.00%     52.99% # Class of executed instruction
system.cpu.op_class::SimdFloatReduceCmp             0      0.00%     52.99% # Class of executed instruction
system.cpu.op_class::SimdAes                        0      0.00%     52.99% # Class of executed instruction
system.cpu.op_class::SimdAesMix                     0      0.00%     52.99% # Class of executed instruction
system.cpu.op_class::SimdSha1Hash                   0      0.00%     52.99% # Class of executed instruction
system.cpu.op_class::SimdSha1Hash2                  0      0.00%     52.99% # Class of executed instruction
system.cpu.op_class::SimdSha256Hash                 0      0.00%     52.99% # Class of executed instruction
system.cpu.op_class::SimdSha256Hash2                0      0.00%     52.99% # Class of executed instruction
system.cpu.op_class::SimdShaSigma2                  0      0.00%     52.99% # Class of executed instruction
system.cpu.op_class::SimdShaSigma3                  0      0.00%     52.99% # Class of executed instruction
system.cpu.op_class::SimdPredAlu                    0      0.00%     52.99% # Class of executed instruction
system.cpu.op_class::MemRead                 14661131      8.09%     61.09% # Class of executed instruction
system.cpu.op_class::MemWrite                 4442793      2.45%     63.54% # Class of executed instruction
system.cpu.op_class::FloatMemRead                2669      0.00%     63.54% # Class of executed instruction
system.cpu.op_class::FloatMemWrite           66042320     36.46%    100.00% # Class of executed instruction
system.cpu.op_class::IprAccess                      0      0.00%    100.00% # Class of executed instruction
system.cpu.op_class::InstPrefetch                   0      0.00%    100.00% # Class of executed instruction
system.cpu.op_class::total                  181133978                       # Class of executed instruction
system.cpu.pwrStateResidencyTicks::ON    959140174500                       # Cumulative time (in ticks) in various power states
system.cpu.workload.numSyscalls                   146                       # Number of system calls
system.cpu_clk_domain.clock                       500                       # Clock period in ticks
system.cpu_voltage_domain.voltage                   1                       # Voltage in Volts
system.l2.CleanEvict_mshr_miss_rate::.writebacks          inf                       # mshr miss rate for CleanEvict accesses
system.l2.CleanEvict_mshr_miss_rate::total          inf                       # mshr miss rate for CleanEvict accesses
system.l2.CleanEvict_mshr_misses::.writebacks          395                       # number of CleanEvict MSHR misses
system.l2.CleanEvict_mshr_misses::total           395                       # number of CleanEvict MSHR misses
system.l2.ReadCleanReq_accesses::.cpu.inst         2189                       # number of ReadCleanReq accesses(hits+misses)
system.l2.ReadCleanReq_accesses::total           2189                       # number of ReadCleanReq accesses(hits+misses)
system.l2.ReadCleanReq_avg_miss_latency::.cpu.inst 109362.232030                       # average ReadCleanReq miss latency
system.l2.ReadCleanReq_avg_miss_latency::total 109362.232030                       # average ReadCleanReq miss latency
system.l2.ReadCleanReq_avg_mshr_miss_latency::.cpu.inst 99362.232030                       # average ReadCleanReq mshr miss latency
system.l2.ReadCleanReq_avg_mshr_miss_latency::total 99362.232030                       # average ReadCleanReq mshr miss latency
system.l2.ReadCleanReq_hits::.cpu.inst            603                       # number of ReadCleanReq hits
system.l2.ReadCleanReq_hits::total                603                       # number of ReadCleanReq hits
system.l2.ReadCleanReq_miss_latency::.cpu.inst    173448500                       # number of ReadCleanReq miss cycles
system.l2.ReadCleanReq_miss_latency::total    173448500                       # number of ReadCleanReq miss cycles
system.l2.ReadCleanReq_miss_rate::.cpu.inst     0.724532                       # miss rate for ReadCleanReq accesses
system.l2.ReadCleanReq_miss_rate::total      0.724532                       # miss rate for ReadCleanReq accesses
system.l2.ReadCleanReq_misses::.cpu.inst         1586                       # number of ReadCleanReq misses
system.l2.ReadCleanReq_misses::total             1586                       # number of ReadCleanReq misses
system.l2.ReadCleanReq_mshr_miss_latency::.cpu.inst    157588500                       # number of ReadCleanReq MSHR miss cycles
system.l2.ReadCleanReq_mshr_miss_latency::total    157588500                       # number of ReadCleanReq MSHR miss cycles
system.l2.ReadCleanReq_mshr_miss_rate::.cpu.inst     0.724532                       # mshr miss rate for ReadCleanReq accesses
system.l2.ReadCleanReq_mshr_miss_rate::total     0.724532                       # mshr miss rate for ReadCleanReq accesses
system.l2.ReadCleanReq_mshr_misses::.cpu.inst         1586                       # number of ReadCleanReq MSHR misses
system.l2.ReadCleanReq_mshr_misses::total         1586                       # number of ReadCleanReq MSHR misses
system.l2.ReadExReq_accesses::.cpu.data       8306111                       # number of ReadExReq accesses(hits+misses)
system.l2.ReadExReq_accesses::total           8306111                       # number of ReadExReq accesses(hits+misses)
system.l2.ReadExReq_avg_miss_latency::.cpu.data 86810.184092                       # average ReadExReq miss latency
system.l2.ReadExReq_avg_miss_latency::total 86810.184092                       # average ReadExReq miss latency
system.l2.ReadExReq_avg_mshr_miss_latency::.cpu.data 76810.184092                       # average ReadExReq mshr miss latency
system.l2.ReadExReq_avg_mshr_miss_latency::total 76810.184092                       # average ReadExReq mshr miss latency
system.l2.ReadExReq_hits::.cpu.data             16084                       # number of ReadExReq hits
system.l2.ReadExReq_hits::total                 16084                       # number of ReadExReq hits
system.l2.ReadExReq_miss_latency::.cpu.data 719658770000                       # number of ReadExReq miss cycles
system.l2.ReadExReq_miss_latency::total  719658770000                       # number of ReadExReq miss cycles
system.l2.ReadExReq_miss_rate::.cpu.data     0.998064                       # miss rate for ReadExReq accesses
system.l2.ReadExReq_miss_rate::total         0.998064                       # miss rate for ReadExReq accesses
system.l2.ReadExReq_misses::.cpu.data         8290027                       # number of ReadExReq misses
system.l2.ReadExReq_misses::total             8290027                       # number of ReadExReq misses
system.l2.ReadExReq_mshr_miss_latency::.cpu.data 636758500000                       # number of ReadExReq MSHR miss cycles
system.l2.ReadExReq_mshr_miss_latency::total 636758500000                       # number of ReadExReq MSHR miss cycles
system.l2.ReadExReq_mshr_miss_rate::.cpu.data     0.998064                       # mshr miss rate for ReadExReq accesses
system.l2.ReadExReq_mshr_miss_rate::total     0.998064                       # mshr miss rate for ReadExReq accesses
system.l2.ReadExReq_mshr_misses::.cpu.data      8290027                       # number of ReadExReq MSHR misses
system.l2.ReadExReq_mshr_misses::total        8290027                       # number of ReadExReq MSHR misses
system.l2.ReadSharedReq_accesses::.cpu.data        39820                       # number of ReadSharedReq accesses(hits+misses)
system.l2.ReadSharedReq_accesses::total         39820                       # number of ReadSharedReq accesses(hits+misses)
system.l2.ReadSharedReq_avg_miss_latency::.cpu.data 310715.238095                       # average ReadSharedReq miss latency
system.l2.ReadSharedReq_avg_miss_latency::total 310715.238095                       # average ReadSharedReq miss latency
system.l2.ReadSharedReq_avg_mshr_miss_latency::.cpu.data 300715.238095                       # average ReadSharedReq mshr miss latency
system.l2.ReadSharedReq_avg_mshr_miss_latency::total 300715.238095                       # average ReadSharedReq mshr miss latency
system.l2.ReadSharedReq_hits::.cpu.data         33520                       # number of ReadSharedReq hits
system.l2.ReadSharedReq_hits::total             33520                       # number of ReadSharedReq hits
system.l2.ReadSharedReq_miss_latency::.cpu.data   1957506000                       # number of ReadSharedReq miss cycles
system.l2.ReadSharedReq_miss_latency::total   1957506000                       # number of ReadSharedReq miss cycles
system.l2.ReadSharedReq_miss_rate::.cpu.data     0.158212                       # miss rate for ReadSharedReq accesses
system.l2.ReadSharedReq_miss_rate::total     0.158212                       # miss rate for ReadSharedReq accesses
system.l2.ReadSharedReq_misses::.cpu.data         6300                       # number of ReadSharedReq misses
system.l2.ReadSharedReq_misses::total            6300                       # number of ReadSharedReq misses
system.l2.ReadSharedReq_mshr_miss_latency::.cpu.data   1894506000                       # number of ReadSharedReq MSHR miss cycles
system.l2.ReadSharedReq_mshr_miss_latency::total   1894506000                       # number of ReadSharedReq MSHR miss cycles
system.l2.ReadSharedReq_mshr_miss_rate::.cpu.data     0.158212                       # mshr miss rate for ReadSharedReq accesses
system.l2.ReadSharedReq_mshr_miss_rate::total     0.158212                       # mshr miss rate for ReadSharedReq accesses
system.l2.ReadSharedReq_mshr_misses::.cpu.data         6300                       # number of ReadSharedReq MSHR misses
system.l2.ReadSharedReq_mshr_misses::total         6300                       # number of ReadSharedReq MSHR misses
system.l2.WritebackClean_accesses::.writebacks          789                       # number of WritebackClean accesses(hits+misses)
system.l2.WritebackClean_accesses::total          789                       # number of WritebackClean accesses(hits+misses)
system.l2.WritebackClean_hits::.writebacks          789                       # number of WritebackClean hits
system.l2.WritebackClean_hits::total              789                       # number of WritebackClean hits
system.l2.WritebackDirty_accesses::.writebacks      8320432                       # number of WritebackDirty accesses(hits+misses)
system.l2.WritebackDirty_accesses::total      8320432                       # number of WritebackDirty accesses(hits+misses)
system.l2.WritebackDirty_hits::.writebacks      8320432                       # number of WritebackDirty hits
system.l2.WritebackDirty_hits::total          8320432                       # number of WritebackDirty hits
system.l2.avg_blocked_cycles::no_mshrs            nan                       # average number of cycles each access was blocked
system.l2.avg_blocked_cycles::no_targets          nan                       # average number of cycles each access was blocked
system.l2.blocked::no_mshrs                         0                       # number of cycles access was blocked
system.l2.blocked::no_targets                       0                       # number of cycles access was blocked
system.l2.blocked_cycles::no_mshrs                  0                       # number of cycles access was blocked
system.l2.blocked_cycles::no_targets                0                       # number of cycles access was blocked
system.l2.demand_accesses::.cpu.inst             2189                       # number of demand (read+write) accesses
system.l2.demand_accesses::.cpu.data          8345931                       # number of demand (read+write) accesses
system.l2.demand_accesses::total              8348120                       # number of demand (read+write) accesses
system.l2.demand_avg_miss_latency::.cpu.inst 109362.232030                       # average overall miss latency
system.l2.demand_avg_miss_latency::.cpu.data 86980.211363                       # average overall miss latency
system.l2.demand_avg_miss_latency::total 86984.489293                       # average overall miss latency
system.l2.demand_avg_mshr_miss_latency::.cpu.inst 99362.232030                       # average overall mshr miss latency
system.l2.demand_avg_mshr_miss_latency::.cpu.data 76980.211363                       # average overall mshr miss latency
system.l2.demand_avg_mshr_miss_latency::total 76984.489293                       # average overall mshr miss latency
system.l2.demand_hits::.cpu.inst                  603                       # number of demand (read+write) hits
system.l2.demand_hits::.cpu.data                49604                       # number of demand (read+write) hits
system.l2.demand_hits::total                    50207                       # number of demand (read+write) hits
system.l2.demand_miss_latency::.cpu.inst    173448500                       # number of demand (read+write) miss cycles
system.l2.demand_miss_latency::.cpu.data 721616276000                       # number of demand (read+write) miss cycles
system.l2.demand_miss_latency::total     721789724500                       # number of demand (read+write) miss cycles
system.l2.demand_miss_rate::.cpu.inst        0.724532                       # miss rate for demand accesses
system.l2.demand_miss_rate::.cpu.data        0.994057                       # miss rate for demand accesses
system.l2.demand_miss_rate::total            0.993986                       # miss rate for demand accesses
system.l2.demand_misses::.cpu.inst               1586                       # number of demand (read+write) misses
system.l2.demand_misses::.cpu.data            8296327                       # number of demand (read+write) misses
system.l2.demand_misses::total                8297913                       # number of demand (read+write) misses
system.l2.demand_mshr_miss_latency::.cpu.inst    157588500                       # number of demand (read+write) MSHR miss cycles
system.l2.demand_mshr_miss_latency::.cpu.data 638653006000                       # number of demand (read+write) MSHR miss cycles
system.l2.demand_mshr_miss_latency::total 638810594500                       # number of demand (read+write) MSHR miss cycles
system.l2.demand_mshr_miss_rate::.cpu.inst     0.724532                       # mshr miss rate for demand accesses
system.l2.demand_mshr_miss_rate::.cpu.data     0.994057                       # mshr miss rate for demand accesses
system.l2.demand_mshr_miss_rate::total       0.993986                       # mshr miss rate for demand accesses
system.l2.demand_mshr_misses::.cpu.inst          1586                       # number of demand (read+write) MSHR misses
system.l2.demand_mshr_misses::.cpu.data       8296327                       # number of demand (read+write) MSHR misses
system.l2.demand_mshr_misses::total           8297913                       # number of demand (read+write) MSHR misses
system.l2.overall_accesses::.cpu.inst            2189                       # number of overall (read+write) accesses
system.l2.overall_accesses::.cpu.data         8345931                       # number of overall (read+write) accesses
system.l2.overall_accesses::total             8348120                       # number of overall (read+write) accesses
system.l2.overall_avg_miss_latency::.cpu.inst 109362.232030                       # average overall miss latency
system.l2.overall_avg_miss_latency::.cpu.data 86980.211363                       # average overall miss latency
system.l2.overall_avg_miss_latency::total 86984.489293                       # average overall miss latency
system.l2.overall_avg_mshr_miss_latency::.cpu.inst 99362.232030                       # average overall mshr miss latency
system.l2.overall_avg_mshr_miss_latency::.cpu.data 76980.211363                       # average overall mshr miss latency
system.l2.overall_avg_mshr_miss_latency::total 76984.489293                       # average overall mshr miss latency
system.l2.overall_hits::.cpu.inst                 603                       # number of overall hits
system.l2.overall_hits::.cpu.data               49604                       # number of overall hits
system.l2.overall_hits::total                   50207                       # number of overall hits
system.l2.overall_miss_latency::.cpu.inst    173448500                       # number of overall miss cycles
system.l2.overall_miss_latency::.cpu.data 721616276000                       # number of overall miss cycles
system.l2.overall_miss_latency::total    721789724500                       # number of overall miss cycles
system.l2.overall_miss_rate::.cpu.inst       0.724532                       # miss rate for overall accesses
system.l2.overall_miss_rate::.cpu.data       0.994057                       # miss rate for overall accesses
system.l2.overall_miss_rate::total           0.993986                       # miss rate for overall accesses
system.l2.overall_misses::.cpu.inst              1586                       # number of overall misses
system.l2.overall_misses::.cpu.data           8296327                       # number of overall misses
system.l2.overall_misses::total               8297913                       # number of overall misses
system.l2.overall_mshr_miss_latency::.cpu.inst    157588500                       # number of overall MSHR miss cycles
system.l2.overall_mshr_miss_latency::.cpu.data 638653006000                       # number of overall MSHR miss cycles
system.l2.overall_mshr_miss_latency::total 638810594500                       # number of overall MSHR miss cycles
system.l2.overall_mshr_miss_rate::.cpu.inst     0.724532                       # mshr miss rate for overall accesses
system.l2.overall_mshr_miss_rate::.cpu.data     0.994057                       # mshr miss rate for overall accesses
system.l2.overall_mshr_miss_rate::total      0.993986                       # mshr miss rate for overall accesses
system.l2.overall_mshr_misses::.cpu.inst         1586                       # number of overall MSHR misses
system.l2.overall_mshr_misses::.cpu.data      8296327                       # number of overall MSHR misses
system.l2.overall_mshr_misses::total          8297913                       # number of overall MSHR misses
system.l2.pwrStateResidencyTicks::UNDEFINED 959140174500                       # Cumulative time (in ticks) in various power states
system.l2.replacements                        8282273                       # number of replacements
system.l2.tags.age_task_id_blocks_1024::0            4                       # Occupied blocks per task id
system.l2.tags.age_task_id_blocks_1024::1            3                       # Occupied blocks per task id
system.l2.tags.age_task_id_blocks_1024::2           44                       # Occupied blocks per task id
system.l2.tags.age_task_id_blocks_1024::3          387                       # Occupied blocks per task id
system.l2.tags.age_task_id_blocks_1024::4        15946                       # Occupied blocks per task id
system.l2.tags.avg_refs                      2.011643                       # Average number of references to valid blocks.
system.l2.tags.data_accesses                 24992984                       # Number of data accesses
system.l2.tags.occ_blocks::.writebacks      11.549346                       # Average occupied blocks per requestor
system.l2.tags.occ_blocks::.cpu.inst        43.467396                       # Average occupied blocks per requestor
system.l2.tags.occ_blocks::.cpu.data     16198.895532                       # Average occupied blocks per requestor
system.l2.tags.occ_percent::.writebacks      0.000705                       # Average percentage of cache occupancy
system.l2.tags.occ_percent::.cpu.inst        0.002653                       # Average percentage of cache occupancy
system.l2.tags.occ_percent::.cpu.data        0.988702                       # Average percentage of cache occupancy
system.l2.tags.occ_percent::total            0.992060                       # Average percentage of cache occupancy
system.l2.tags.occ_task_id_blocks::1024         16384                       # Occupied blocks per task id
system.l2.tags.occ_task_id_percent::1024            1                       # Percentage of cache occupancy per task id
system.l2.tags.pwrStateResidencyTicks::UNDEFINED 959140174500                       # Cumulative time (in ticks) in various power states
system.l2.tags.sampled_refs                   8298657                       # Sample count of references to valid blocks.
system.l2.tags.tag_accesses                  24992984                       # Number of tag accesses
system.l2.tags.tagsinuse                 16253.912273                       # Cycle average of tags in use
system.l2.tags.total_refs                    16693932                       # Total number of references to valid blocks.
system.l2.tags.warmup_cycle                     77000                       # Cycle when the warmup percentage was hit.
system.l2.writebacks::.writebacks             8279514                       # number of writebacks
system.l2.writebacks::total                   8279514                       # number of writebacks
system.mem_ctrls.avgBusLat                    5000.00                       # Average bus latency per DRAM burst
system.mem_ctrls.avgGap                      57858.10                       # Average gap between requests
system.mem_ctrls.avgMemAccLat                36226.36                       # Average memory access latency per DRAM burst
system.mem_ctrls.avgPriority_.writebacks::samples   8279499.00                       # Average QoS priority value for accepted requests
system.mem_ctrls.avgPriority_.cpu.inst::samples      1586.00                       # Average QoS priority value for accepted requests
system.mem_ctrls.avgPriority_.cpu.data::samples   8296265.00                       # Average QoS priority value for accepted requests
system.mem_ctrls.avgQLat                     17476.36                       # Average queueing delay per DRAM burst
system.mem_ctrls.avgRdBW                       553.69                       # Average DRAM read bandwidth in MiByte/s
system.mem_ctrls.avgRdBWSys                    553.69                       # Average system read bandwidth in MiByte/s
system.mem_ctrls.avgRdQLen                       1.00                       # Average read queue length when enqueuing
system.mem_ctrls.avgWrBW                       552.46                       # Average achieved write bandwidth in MiByte/s
system.mem_ctrls.avgWrBWSys                    552.46                       # Average system write bandwidth in MiByte/s
system.mem_ctrls.avgWrQLen                      25.69                       # Average write queue length when enqueuing
system.mem_ctrls.busUtil                         8.64                       # Data bus utilization in percentage
system.mem_ctrls.busUtilRead                     4.33                       # Data bus utilization in percentage for reads
system.mem_ctrls.busUtilWrite                    4.32                       # Data bus utilization in percentage for writes
system.mem_ctrls.bw_inst_read::.cpu.inst       105828                       # Instruction read bandwidth from this memory (bytes/s)
system.mem_ctrls.bw_inst_read::total           105828                       # Instruction read bandwidth from this memory (bytes/s)
system.mem_ctrls.bw_read::.cpu.inst            105828                       # Total read bandwidth from this memory (bytes/s)
system.mem_ctrls.bw_read::.cpu.data         553584285                       # Total read bandwidth from this memory (bytes/s)
system.mem_ctrls.bw_read::total             553690113                       # Total read bandwidth from this memory (bytes/s)
system.mem_ctrls.bw_total::.writebacks      552462414                       # Total bandwidth to/from this memory (bytes/s)
system.mem_ctrls.bw_total::.cpu.inst           105828                       # Total bandwidth to/from this memory (bytes/s)
system.mem_ctrls.bw_total::.cpu.data        553584285                       # Total bandwidth to/from this memory (bytes/s)
system.mem_ctrls.bw_total::total           1106152527                       # Total bandwidth to/from this memory (bytes/s)
system.mem_ctrls.bw_write::.writebacks      552462414                       # Write bandwidth from this memory (bytes/s)
system.mem_ctrls.bw_write::total            552462414                       # Write bandwidth from this memory (bytes/s)
system.mem_ctrls.bytesPerActivate::samples      1282918                       # Bytes accessed per row activation
system.mem_ctrls.bytesPerActivate::mean    826.980892                       # Bytes accessed per row activation
system.mem_ctrls.bytesPerActivate::gmean   726.272363                       # Bytes accessed per row activation
system.mem_ctrls.bytesPerActivate::stdev   299.698106                       # Bytes accessed per row activation
system.mem_ctrls.bytesPerActivate::0-127        37689      2.94%      2.94% # Bytes accessed per row activation
system.mem_ctrls.bytesPerActivate::128-255        33310      2.60%      5.53% # Bytes accessed per row activation
system.mem_ctrls.bytesPerActivate::256-383        64767      5.05%     10.58% # Bytes accessed per row activation
system.mem_ctrls.bytesPerActivate::384-511       100714      7.85%     18.43% # Bytes accessed per row activation
system.mem_ctrls.bytesPerActivate::512-639       102154      7.96%     26.40% # Bytes accessed per row activation
system.mem_ctrls.bytesPerActivate::640-767        62872      4.90%     31.30% # Bytes accessed per row activation
system.mem_ctrls.bytesPerActivate::768-895        17833      1.39%     32.69% # Bytes accessed per row activation
system.mem_ctrls.bytesPerActivate::896-1023        37326      2.91%     35.60% # Bytes accessed per row activation
system.mem_ctrls.bytesPerActivate::1024-1151       826253     64.40%    100.00% # Bytes accessed per row activation
system.mem_ctrls.bytesPerActivate::total      1282918                       # Bytes accessed per row activation
system.mem_ctrls.bytesReadDRAM              531062464                       # Total number of bytes read from DRAM
system.mem_ctrls.bytesReadSys               531066432                       # Total read bytes from the system interface side
system.mem_ctrls.bytesReadWrQ                    3968                       # Total number of bytes read from write queue
system.mem_ctrls.bytesWritten               529886464                       # Total number of bytes written to DRAM
system.mem_ctrls.bytesWrittenSys            529888896                       # Total written bytes from the system interface side
system.mem_ctrls.bytes_inst_read::.cpu.inst       101504                       # Number of instructions bytes read from this memory
system.mem_ctrls.bytes_inst_read::total        101504                       # Number of instructions bytes read from this memory
system.mem_ctrls.bytes_read::.cpu.inst         101504                       # Number of bytes read from this memory
system.mem_ctrls.bytes_read::.cpu.data      530964928                       # Number of bytes read from this memory
system.mem_ctrls.bytes_read::total          531066432                       # Number of bytes read from this memory
system.mem_ctrls.bytes_written::.writebacks    529888896                       # Number of bytes written to this memory
system.mem_ctrls.bytes_written::total       529888896                       # Number of bytes written to this memory
system.mem_ctrls.masterReadAccesses::.cpu.inst         1586                       # Per-master read serviced memory accesses
system.mem_ctrls.masterReadAccesses::.cpu.data      8296327                       # Per-master read serviced memory accesses
system.mem_ctrls.masterReadAvgLat::.cpu.inst     58525.85                       # Per-master read average memory access latency
system.mem_ctrls.masterReadAvgLat::.cpu.data     36221.82                       # Per-master read average memory access latency
system.mem_ctrls.masterReadBytes::.cpu.inst       101504                       # Per-master bytes read from memory
system.mem_ctrls.masterReadBytes::.cpu.data    530960960                       # Per-master bytes read from memory
system.mem_ctrls.masterReadRate::.cpu.inst 105828.118452982177                       # Per-master bytes read from memory rate (Bytes/sec)
system.mem_ctrls.masterReadRate::.cpu.data 553580148.258089661598                       # Per-master bytes read from memory rate (Bytes/sec)
system.mem_ctrls.masterReadTotalLat::.cpu.inst     92822000                       # Per-master read total memory access latency
system.mem_ctrls.masterReadTotalLat::.cpu.data 300508089000                       # Per-master read total memory access latency
system.mem_ctrls.masterWriteAccesses::.writebacks      8279514                       # Per-master write serviced memory accesses
system.mem_ctrls.masterWriteAvgLat::.writebacks   2831035.94                       # Per-master write average memory access latency
system.mem_ctrls.masterWriteBytes::.writebacks    529886464                       # Per-master bytes write to memory
system.mem_ctrls.masterWriteRate::.writebacks 552459878.219812750816                       # Per-master bytes write to memory rate (Bytes/sec)
system.mem_ctrls.masterWriteTotalLat::.writebacks 23439601708556                       # Per-master write total memory access latency
system.mem_ctrls.mergedWrBursts                    15                       # Number of DRAM write bursts merged with an existing one
system.mem_ctrls.neitherReadNorWriteReqs            0                       # Number of requests that are neither read nor write
system.mem_ctrls.numRdRetry                         0                       # Number of times read queue was full causing retry
system.mem_ctrls.numReadWriteTurnArounds       517200                       # Number of turnarounds from READ to WRITE
system.mem_ctrls.numStayReadState            24490265                       # Number of times bus staying in READ state
system.mem_ctrls.numStayWriteState            7772872                       # Number of times bus staying in WRITE state
system.mem_ctrls.numWrRetry                         0                       # Number of times write queue was full causing retry
system.mem_ctrls.numWriteReadTurnArounds       517200                       # Number of turnarounds from WRITE to READ
system.mem_ctrls.num_reads::.cpu.inst            1586                       # Number of read requests responded to by this memory
system.mem_ctrls.num_reads::.cpu.data         8296327                       # Number of read requests responded to by this memory
system.mem_ctrls.num_reads::total             8297913                       # Number of read requests responded to by this memory
system.mem_ctrls.num_writes::.writebacks      8279514                       # Number of write requests responded to by this memory
system.mem_ctrls.num_writes::total            8279514                       # Number of write requests responded to by this memory
system.mem_ctrls.pageHitRate                    92.26                       # Row buffer hit rate, read and write combined
system.mem_ctrls.peakBW                      12800.00                       # Theoretical peak bandwidth in MiByte/s
system.mem_ctrls.perBankRdBursts::0            518495                       # Per bank write bursts
system.mem_ctrls.perBankRdBursts::1            518439                       # Per bank write bursts
system.mem_ctrls.perBankRdBursts::2            518510                       # Per bank write bursts
system.mem_ctrls.perBankRdBursts::3            518685                       # Per bank write bursts
system.mem_ctrls.perBankRdBursts::4            519053                       # Per bank write bursts
system.mem_ctrls.perBankRdBursts::5            518637                       # Per bank write bursts
system.mem_ctrls.perBankRdBursts::6            518406                       # Per bank write bursts
system.mem_ctrls.perBankRdBursts::7            518404                       # Per bank write bursts
system.mem_ctrls.perBankRdBursts::8            518269                       # Per bank write bursts
system.mem_ctrls.perBankRdBursts::9            518454                       # Per bank write bursts
system.mem_ctrls.perBankRdBursts::10           518612                       # Per bank write bursts
system.mem_ctrls.perBankRdBursts::11           518874                       # Per bank write bursts
system.mem_ctrls.perBankRdBursts::12           518754                       # Per bank write bursts
system.mem_ctrls.perBankRdBursts::13           518776                       # Per bank write bursts
system.mem_ctrls.perBankRdBursts::14           518720                       # Per bank write bursts
system.mem_ctrls.perBankRdBursts::15           518763                       # Per bank write bursts
system.mem_ctrls.perBankWrBursts::0            517338                       # Per bank write bursts
system.mem_ctrls.perBankWrBursts::1            517351                       # Per bank write bursts
system.mem_ctrls.perBankWrBursts::2            517425                       # Per bank write bursts
system.mem_ctrls.perBankWrBursts::3            517485                       # Per bank write bursts
system.mem_ctrls.perBankWrBursts::4            517643                       # Per bank write bursts
system.mem_ctrls.perBankWrBursts::5            517450                       # Per bank write bursts
system.mem_ctrls.perBankWrBursts::6            517302                       # Per bank write bursts
system.mem_ctrls.perBankWrBursts::7            517255                       # Per bank write bursts
system.mem_ctrls.perBankWrBursts::8            517201                       # Per bank write bursts
system.mem_ctrls.perBankWrBursts::9            517315                       # Per bank write bursts
system.mem_ctrls.perBankWrBursts::10           517464                       # Per bank write bursts
system.mem_ctrls.perBankWrBursts::11           517688                       # Per bank write bursts
system.mem_ctrls.perBankWrBursts::12           517630                       # Per bank write bursts
system.mem_ctrls.perBankWrBursts::13           517668                       # Per bank write bursts
system.mem_ctrls.perBankWrBursts::14           517641                       # Per bank write bursts
system.mem_ctrls.perBankWrBursts::15           517620                       # Per bank write bursts
system.mem_ctrls.priorityMaxLatency      0.006175058500                       # per QoS priority maximum request to response latency (s)
system.mem_ctrls.priorityMinLatency      0.000000018750                       # per QoS priority minimum request to response latency (s)
system.mem_ctrls.pwrStateResidencyTicks::UNDEFINED 959140174500                       # Cumulative time (in ticks) in various power states
system.mem_ctrls.rdPerTurnAround::samples       517200                       # Reads before turning the bus around for writes
system.mem_ctrls.rdPerTurnAround::mean      16.043778                       # Reads before turning the bus around for writes
system.mem_ctrls.rdPerTurnAround::gmean     16.012189                       # Reads before turning the bus around for writes
system.mem_ctrls.rdPerTurnAround::stdev     10.471577                       # Reads before turning the bus around for writes
system.mem_ctrls.rdPerTurnAround::0-255        517194    100.00%    100.00% # Reads before turning the bus around for writes
system.mem_ctrls.rdPerTurnAround::256-511            1      0.00%    100.00% # Reads before turning the bus around for writes
system.mem_ctrls.rdPerTurnAround::1024-1279            1      0.00%    100.00% # Reads before turning the bus around for writes
system.mem_ctrls.rdPerTurnAround::1792-2047            1      0.00%    100.00% # Reads before turning the bus around for writes
system.mem_ctrls.rdPerTurnAround::2304-2559            1      0.00%    100.00% # Reads before turning the bus around for writes
system.mem_ctrls.rdPerTurnAround::3584-3839            1      0.00%    100.00% # Reads before turning the bus around for writes
system.mem_ctrls.rdPerTurnAround::5376-5631            1      0.00%    100.00% # Reads before turning the bus around for writes
system.mem_ctrls.rdPerTurnAround::total        517200                       # Reads before turning the bus around for writes
system.mem_ctrls.rdQLenPdf::0                 8297850                       # What read queue length does an incoming req see
system.mem_ctrls.rdQLenPdf::1                       1                       # What read queue length does an incoming req see
system.mem_ctrls.rdQLenPdf::2                       0                       # What read queue length does an incoming req see
system.mem_ctrls.rdQLenPdf::3                       0                       # What read queue length does an incoming req see
system.mem_ctrls.rdQLenPdf::4                       0                       # What read queue length does an incoming req see
system.mem_ctrls.rdQLenPdf::5                       0                       # What read queue length does an incoming req see
system.mem_ctrls.rdQLenPdf::6                       0                       # What read queue length does an incoming req see
system.mem_ctrls.rdQLenPdf::7                       0                       # What read queue length does an incoming req see
system.mem_ctrls.rdQLenPdf::8                       0                       # What read queue length does an incoming req see
system.mem_ctrls.rdQLenPdf::9                       0                       # What read queue length does an incoming req see
system.mem_ctrls.rdQLenPdf::10                      0                       # What read queue length does an incoming req see
system.mem_ctrls.rdQLenPdf::11                      0                       # What read queue length does an incoming req see
system.mem_ctrls.rdQLenPdf::12                      0                       # What read queue length does an incoming req see
system.mem_ctrls.rdQLenPdf::13                      0                       # What read queue length does an incoming req see
system.mem_ctrls.rdQLenPdf::14                      0                       # What read queue length does an incoming req see
system.mem_ctrls.rdQLenPdf::15                      0                       # What read queue length does an incoming req see
system.mem_ctrls.rdQLenPdf::16                      0                       # What read queue length does an incoming req see
system.mem_ctrls.rdQLenPdf::17                      0                       # What read queue length does an incoming req see
system.mem_ctrls.rdQLenPdf::18                      0                       # What read queue length does an incoming req see
system.mem_ctrls.rdQLenPdf::19                      0                       # What read queue length does an incoming req see
system.mem_ctrls.rdQLenPdf::20                      0                       # What read queue length does an incoming req see
system.mem_ctrls.rdQLenPdf::21                      0                       # What read queue length does an incoming req see
system.mem_ctrls.rdQLenPdf::22                      0                       # What read queue length does an incoming req see
system.mem_ctrls.rdQLenPdf::23                      0                       # What read queue length does an incoming req see
system.mem_ctrls.rdQLenPdf::24                      0                       # What read queue length does an incoming req see
system.mem_ctrls.rdQLenPdf::25                      0                       # What read queue length does an incoming req see
system.mem_ctrls.rdQLenPdf::26                      0                       # What read queue length does an incoming req see
system.mem_ctrls.rdQLenPdf::27                      0                       # What read queue length does an incoming req see
system.mem_ctrls.rdQLenPdf::28                      0                       # What read queue length does an incoming req see
system.mem_ctrls.rdQLenPdf::29                      0                       # What read queue length does an incoming req see
system.mem_ctrls.rdQLenPdf::30                      0                       # What read queue length does an incoming req see
system.mem_ctrls.rdQLenPdf::31                      0                       # What read queue length does an incoming req see
system.mem_ctrls.readBursts                   8297913                       # Number of DRAM read bursts, including those serviced by the write queue
system.mem_ctrls.readPktSize::0                     0                       # Read request sizes (log2)
system.mem_ctrls.readPktSize::1                     0                       # Read request sizes (log2)
system.mem_ctrls.readPktSize::2                     0                       # Read request sizes (log2)
system.mem_ctrls.readPktSize::3                     0                       # Read request sizes (log2)
system.mem_ctrls.readPktSize::4                     0                       # Read request sizes (log2)
system.mem_ctrls.readPktSize::5                     0                       # Read request sizes (log2)
system.mem_ctrls.readPktSize::6               8297913                       # Read request sizes (log2)
system.mem_ctrls.readReqs                     8297913                       # Number of read requests accepted
system.mem_ctrls.readRowHitRate                 91.65                       # Row buffer hit rate for reads
system.mem_ctrls.readRowHits                  7605281                       # Number of row buffer hits during reads
system.mem_ctrls.servicedByWrQ                     62                       # Number of DRAM read bursts serviced by the write queue
system.mem_ctrls.totBusLat                41489255000                       # Total ticks spent in databus transfers
system.mem_ctrls.totGap                  959138361500                       # Total gap between requests
system.mem_ctrls.totMemAccLat            300600911000                       # Total ticks spent from burst creation until serviced by the DRAM
system.mem_ctrls.totQLat                 145016204750                       # Total ticks spent queuing
system.mem_ctrls.wrPerTurnAround::samples       517200                       # Writes before turning the bus around for reads
system.mem_ctrls.wrPerTurnAround::mean      16.008268                       # Writes before turning the bus around for reads
system.mem_ctrls.wrPerTurnAround::gmean     16.007792                       # Writes before turning the bus around for reads
[...]
system.mem_ctrls.wrQLenPdf::26                 517200                       # What write queue length does an incoming req see
system.mem_ctrls.wrQLenPdf::27                 517201                       # What write queue length does an incoming req see
system.mem_ctrls.wrQLenPdf::28                 517200                       # What write queue length does an incoming req see
system.mem_ctrls.wrQLenPdf::29                 517200                       # What write queue length does an incoming req see
system.mem_ctrls.wrQLenPdf::30                 517214                       # What write queue length does an incoming req see
system.mem_ctrls.wrQLenPdf::31                 517202                       # What write queue length does an incoming req see
system.mem_ctrls.wrQLenPdf::32                 517200                       # What write queue length does an incoming req see
system.mem_ctrls.wrQLenPdf::33                      0                       # What write queue length does an incoming req see
system.mem_ctrls.wrQLenPdf::34                      0                       # What write queue length does an incoming req see
system.mem_ctrls.wrQLenPdf::35                      0                       # What write queue length does an incoming req see
system.mem_ctrls.wrQLenPdf::36                      0                       # What write queue length does an incoming req see
system.mem_ctrls.wrQLenPdf::37                      0                       # What write queue length does an incoming req see
system.mem_ctrls.wrQLenPdf::38                      0                       # What write queue length does an incoming req see
system.mem_ctrls.wrQLenPdf::39                      0                       # What write queue length does an incoming req see
system.mem_ctrls.wrQLenPdf::40                      0                       # What write queue length does an incoming req see
system.mem_ctrls.wrQLenPdf::41                      0                       # What write queue length does an incoming req see
system.mem_ctrls.wrQLenPdf::42                      0                       # What write queue length does an incoming req see
system.mem_ctrls.wrQLenPdf::43                      0                       # What write queue length does an incoming req see
system.mem_ctrls.wrQLenPdf::44                      0                       # What write queue length does an incoming req see
system.mem_ctrls.wrQLenPdf::45                      0                       # What write queue length does an incoming req see
system.mem_ctrls.wrQLenPdf::46                      0                       # What write queue length does an incoming req see
system.mem_ctrls.wrQLenPdf::47                      0                       # What write queue length does an incoming req see
system.mem_ctrls.wrQLenPdf::48                      0                       # What write queue length does an incoming req see
system.mem_ctrls.wrQLenPdf::49                      0                       # What write queue length does an incoming req see
system.mem_ctrls.wrQLenPdf::50                      0                       # What write queue length does an incoming req see
system.mem_ctrls.wrQLenPdf::51                      0                       # What write queue length does an incoming req see
system.mem_ctrls.wrQLenPdf::52                      0                       # What write queue length does an incoming req see
system.mem_ctrls.wrQLenPdf::53                      0                       # What write queue length does an incoming req see
system.mem_ctrls.wrQLenPdf::54                      0                       # What write queue length does an incoming req see
system.mem_ctrls.wrQLenPdf::55                      0                       # What write queue length does an incoming req see
system.mem_ctrls.wrQLenPdf::56                      0                       # What write queue length does an incoming req see
system.mem_ctrls.wrQLenPdf::57                      0                       # What write queue length does an incoming req see
system.mem_ctrls.wrQLenPdf::58                      0                       # What write queue length does an incoming req see
system.mem_ctrls.wrQLenPdf::59                      0                       # What write queue length does an incoming req see
system.mem_ctrls.wrQLenPdf::60                      0                       # What write queue length does an incoming req see
system.mem_ctrls.wrQLenPdf::61                      0                       # What write queue length does an incoming req see
system.mem_ctrls.wrQLenPdf::62                      0                       # What write queue length does an incoming req see
system.mem_ctrls.wrQLenPdf::63                      0                       # What write queue length does an incoming req see
system.mem_ctrls.writeBursts                  8279514                       # Number of DRAM write bursts, including those merged in the write queue
system.mem_ctrls.writePktSize::0                    0                       # Write request sizes (log2)
system.mem_ctrls.writePktSize::1                    0                       # Write request sizes (log2)
system.mem_ctrls.writePktSize::2                    0                       # Write request sizes (log2)
system.mem_ctrls.writePktSize::3                    0                       # Write request sizes (log2)
system.mem_ctrls.writePktSize::4                    0                       # Write request sizes (log2)
system.mem_ctrls.writePktSize::5                    0                       # Write request sizes (log2)
system.mem_ctrls.writePktSize::6              8279514                       # Write request sizes (log2)
system.mem_ctrls.writeReqs                    8279514                       # Number of write requests accepted
system.mem_ctrls.writeRowHitRate                92.87                       # Row buffer hit rate for writes
system.mem_ctrls.writeRowHits                 7689124                       # Number of row buffer hits during writes
system.mem_ctrls_0.actBackEnergy          82772037000                       # Energy for active background per rank (pJ)
system.mem_ctrls_0.actEnergy               4581773700                       # Energy for activate commands per rank (pJ)
system.mem_ctrls_0.actPowerDownEnergy    132671618250                       # Energy for active power-down per rank (pJ)
system.mem_ctrls_0.averagePower            466.268942                       # Core power per rank (mW)
system.mem_ctrls_0.memoryStateTime::IDLE   2978493750                       # Time in different power states
system.mem_ctrls_0.memoryStateTime::REF   18074160000                       # Time in different power states
system.mem_ctrls_0.memoryStateTime::SREF 415989379000                       # Time in different power states
system.mem_ctrls_0.memoryStateTime::PRE_PDN  61579284003                       # Time in different power states
system.mem_ctrls_0.memoryStateTime::ACT  169573968244                       # Time in different power states
system.mem_ctrls_0.memoryStateTime::ACT_PDN 290944889503                       # Time in different power states
system.mem_ctrls_0.preBackEnergy           3420461280                       # Energy for precharge background per rank (pJ)
system.mem_ctrls_0.preEnergy               2435266680                       # Energy for precharge commands per rank (pJ)
system.mem_ctrls_0.prePowerDownEnergy     23645756160                       # Energy for precharge power-down per rank (pJ)
system.mem_ctrls_0.readEnergy             29621211060                       # Energy for read commands per rank (pJ)
system.mem_ctrls_0.refreshEnergy         42727314240.000008                       # Energy for refresh commands per rank (pJ)
system.mem_ctrls_0.selfRefreshEnergy     103643851800                       # Energy for self refresh per rank (pJ)
system.mem_ctrls_0.totalEnergy           447217274370                       # Total energy per rank (pJ)
system.mem_ctrls_0.totalIdleTime         768510191756                       # Total Idle time Per DRAM Rank
system.mem_ctrls_0.writeEnergy            21606879780                       # Energy for write commands per rank (pJ)
system.mem_ctrls_1.actBackEnergy          82753928670                       # Energy for active background per rank (pJ)
system.mem_ctrls_1.actEnergy               4578289380                       # Energy for activate commands per rank (pJ)
system.mem_ctrls_1.actPowerDownEnergy    131936436810                       # Energy for active power-down per rank (pJ)
system.mem_ctrls_1.averagePower            465.272259                       # Core power per rank (mW)
system.mem_ctrls_1.memoryStateTime::IDLE   2931473750                       # Time in different power states
system.mem_ctrls_1.memoryStateTime::REF   17966260000                       # Time in different power states
system.mem_ctrls_1.memoryStateTime::SREF 419277618750                       # Time in different power states
system.mem_ctrls_1.memoryStateTime::PRE_PDN  59997570998                       # Time in different power states
system.mem_ctrls_1.memoryStateTime::ACT  169634073745                       # Time in different power states
system.mem_ctrls_1.memoryStateTime::ACT_PDN 289333177257                       # Time in different power states
system.mem_ctrls_1.preBackEnergy           3399229920                       # Energy for precharge background per rank (pJ)
system.mem_ctrls_1.preEnergy               2433407130                       # Energy for precharge commands per rank (pJ)
system.mem_ctrls_1.prePowerDownEnergy     23038370400                       # Energy for precharge power-down per rank (pJ)
system.mem_ctrls_1.readEnergy             29625445080                       # Energy for read commands per rank (pJ)
system.mem_ctrls_1.refreshEnergy         42472238640.000008                       # Energy for refresh commands per rank (pJ)
system.mem_ctrls_1.selfRefreshEnergy     104320548840                       # Energy for self refresh per rank (pJ)
system.mem_ctrls_1.totalEnergy           446261315400                       # Total energy per rank (pJ)
system.mem_ctrls_1.totalIdleTime         768606525005                       # Total Idle time Per DRAM Rank
system.mem_ctrls_1.writeEnergy            21611984940                       # Energy for write commands per rank (pJ)
system.membus.pkt_count_system.l2.mem_side::system.mem_ctrls.port     24876448                       # Packet count per connected master and slave (bytes)
system.membus.pkt_count_system.l2.mem_side::total     24876448                       # Packet count per connected master and slave (bytes)
system.membus.pkt_count::total               24876448                       # Packet count per connected master and slave (bytes)
system.membus.pkt_size_system.l2.mem_side::system.mem_ctrls.port   1060955328                       # Cumulative packet size per connected master and slave (bytes)
system.membus.pkt_size_system.l2.mem_side::total   1060955328                       # Cumulative packet size per connected master and slave (bytes)
system.membus.pkt_size::total              1060955328                       # Cumulative packet size per connected master and slave (bytes)
system.membus.pwrStateResidencyTicks::UNDEFINED 959140174500                       # Cumulative time (in ticks) in various power states
system.membus.reqLayer2.occupancy         49696673400                       # Layer occupancy (ticks)
system.membus.reqLayer2.utilization               5.2                       # Layer utilization (%)
system.membus.respLayer1.occupancy        43634360250                       # Layer occupancy (ticks)
system.membus.respLayer1.utilization              4.5                       # Layer utilization (%)
system.membus.snoopTraffic                          0                       # Total snoop traffic (bytes)
system.membus.snoop_fanout::samples           8297913                       # Request fanout histogram
system.membus.snoop_fanout::mean                    0                       # Request fanout histogram
system.membus.snoop_fanout::stdev                   0                       # Request fanout histogram
system.membus.snoop_fanout::underflows              0      0.00%      0.00% # Request fanout histogram
system.membus.snoop_fanout::0                 8297913    100.00%    100.00% # Request fanout histogram
system.membus.snoop_fanout::1                       0      0.00%    100.00% # Request fanout histogram
system.membus.snoop_fanout::overflows               0      0.00%    100.00% # Request fanout histogram
system.membus.snoop_fanout::min_value               0                       # Request fanout histogram
system.membus.snoop_fanout::max_value               0                       # Request fanout histogram
system.membus.snoop_fanout::total             8297913                       # Request fanout histogram
system.membus.snoop_filter.hit_multi_requests            0                       # Number of requests hitting in the snoop filter with multiple (>1) holders of the requested data.
system.membus.snoop_filter.hit_multi_snoops            0                       # Number of snoops hitting in the snoop filter with multiple (>1) holders of the requested data.
system.membus.snoop_filter.hit_single_requests      8280622                       # Number of requests hitting in the snoop filter with a single holder of the requested data.
system.membus.snoop_filter.hit_single_snoops            0                       # Number of snoops hitting in the snoop filter with a single holder of the requested data.
system.membus.snoop_filter.tot_requests      16578535                       # Total number of requests made to the snoop filter.
system.membus.snoop_filter.tot_snoops               0                       # Total number of snoops made to the snoop filter.
system.membus.snoops                                0                       # Total snoops (count)
system.membus.trans_dist::ReadResp               7886                       # Transaction distribution
system.membus.trans_dist::WritebackDirty      8279514                       # Transaction distribution
system.membus.trans_dist::CleanEvict             1108                       # Transaction distribution
system.membus.trans_dist::ReadExReq           8290027                       # Transaction distribution
system.membus.trans_dist::ReadExResp          8290027                       # Transaction distribution
system.membus.trans_dist::ReadSharedReq          7886                       # Transaction distribution
system.pwrStateResidencyTicks::UNDEFINED 959140174500                       # Cumulative time (in ticks) in various power states
system.tol2bus.pkt_count_system.cpu.icache.mem_side::system.l2.cpu_side         5167                       # Packet count per connected master and slave (bytes)
system.tol2bus.pkt_count_system.cpu.dcache.mem_side::system.l2.cpu_side     25037281                       # Packet count per connected master and slave (bytes)
system.tol2bus.pkt_count::total              25042448                       # Packet count per connected master and slave (bytes)
system.tol2bus.pkt_size_system.cpu.icache.mem_side::system.l2.cpu_side       190592                       # Cumulative packet size per connected master and slave (bytes)
system.tol2bus.pkt_size_system.cpu.dcache.mem_side::system.l2.cpu_side   1066647232                       # Cumulative packet size per connected master and slave (bytes)
system.tol2bus.pkt_size::total             1066837824                       # Cumulative packet size per connected master and slave (bytes)
system.tol2bus.pwrStateResidencyTicks::UNDEFINED 959140174500                       # Cumulative time (in ticks) in various power states
system.tol2bus.reqLayer0.occupancy        16668385000                       # Layer occupancy (ticks)
system.tol2bus.reqLayer0.utilization              1.7                       # Layer utilization (%)
system.tol2bus.respLayer0.occupancy           3283500                       # Layer occupancy (ticks)
system.tol2bus.respLayer0.utilization             0.0                       # Layer utilization (%)
system.tol2bus.respLayer1.occupancy       12518896500                       # Layer occupancy (ticks)
system.tol2bus.respLayer1.utilization             1.3                       # Layer utilization (%)
system.tol2bus.snoopTraffic                 529888896                       # Total snoop traffic (bytes)
system.tol2bus.snoop_fanout::samples         16630393                       # Request fanout histogram
system.tol2bus.snoop_fanout::mean            0.000123                       # Request fanout histogram
system.tol2bus.snoop_fanout::stdev           0.011094                       # Request fanout histogram
system.tol2bus.snoop_fanout::underflows             0      0.00%      0.00% # Request fanout histogram
system.tol2bus.snoop_fanout::0               16628346     99.99%     99.99% # Request fanout histogram
system.tol2bus.snoop_fanout::1                   2047      0.01%    100.00% # Request fanout histogram
system.tol2bus.snoop_fanout::2                      0      0.00%    100.00% # Request fanout histogram
system.tol2bus.snoop_fanout::3                      0      0.00%    100.00% # Request fanout histogram
system.tol2bus.snoop_fanout::4                      0      0.00%    100.00% # Request fanout histogram
system.tol2bus.snoop_fanout::overflows              0      0.00%    100.00% # Request fanout histogram
system.tol2bus.snoop_fanout::min_value              0                       # Request fanout histogram
system.tol2bus.snoop_fanout::max_value              1                       # Request fanout histogram
system.tol2bus.snoop_fanout::total           16630393                       # Request fanout histogram
system.tol2bus.snoop_filter.hit_multi_requests            1                       # Number of requests hitting in the snoop filter with multiple (>1) holders of the requested data.
system.tol2bus.snoop_filter.hit_multi_snoops            0                       # Number of snoops hitting in the snoop filter with multiple (>1) holders of the requested data.
system.tol2bus.snoop_filter.hit_single_requests      8346208                       # Number of requests hitting in the snoop filter with a single holder of the requested data.
system.tol2bus.snoop_filter.hit_single_snoops         2046                       # Number of snoops hitting in the snoop filter with a single holder of the requested data.
system.tol2bus.snoop_filter.tot_requests     16694328                       # Total number of requests made to the snoop filter.
system.tol2bus.snoop_filter.tot_snoops           2046                       # Total number of snoops made to the snoop filter.
system.tol2bus.snoops                         8282273                       # Total snoops (count)
system.tol2bus.trans_dist::ReadResp             42009                       # Transaction distribution
system.tol2bus.trans_dist::WritebackDirty     16599946                       # Transaction distribution
system.tol2bus.trans_dist::WritebackClean          789                       # Transaction distribution
system.tol2bus.trans_dist::CleanEvict           27746                       # Transaction distribution
system.tol2bus.trans_dist::ReadExReq          8306111                       # Transaction distribution
system.tol2bus.trans_dist::ReadExResp         8306111                       # Transaction distribution
system.tol2bus.trans_dist::ReadCleanReq          2189                       # Transaction distribution
system.tol2bus.trans_dist::ReadSharedReq        39820                       # Transaction distribution
system.voltage_domain.voltage                       1                       # Voltage in Volts

---------- End Simulation Statistics   ----------
