
---------- Begin Simulation Statistics ----------
final_tick                               957950126500                       # Number of ticks from beginning of simulation (restored from checkpoints and never reset)
host_inst_rate                                 257695                       # Simulator instruction rate (inst/s)
host_mem_usage                                 824252                       # Number of bytes of host memory used
host_op_rate                                   466774                       # Simulator op (including micro ops) rate (op/s)
host_seconds                                   388.06                       # Real time elapsed on the host
host_tick_rate                             2468592563                       # Simulator tick rate (ticks/s)
sim_freq                                 1000000000000                       # Frequency of simulated ticks
sim_insts                                   100000001                       # Number of instructions simulated
sim_ops                                     181133978                       # Number of ops (including micro ops) simulated
sim_seconds                                  0.957950                       # Number of seconds simulated
sim_ticks                                957950126500                       # Number of ticks simulated
system.clk_domain.clock                          1000                       # Clock period in ticks
system.cpu.Branches                          13383360                       # Number of branches fetched
system.cpu.apic_clk_domain.clock                 8000                       # Clock period in ticks
system.cpu.committedInsts                   100000001                       # Number of instructions committed
system.cpu.committedOps                     181133978                       # Number of ops (including micro ops) committed
system.cpu.dcache.ReadReq_accesses::.cpu.data     14664116                       # number of ReadReq accesses(hits+misses)
system.cpu.dcache.ReadReq_accesses::total     14664116                       # number of ReadReq accesses(hits+misses)
system.cpu.dcache.ReadReq_avg_miss_latency::.cpu.data 311386.958799                       # average ReadReq miss latency
system.cpu.dcache.ReadReq_avg_miss_latency::total 311386.958799                       # average ReadReq miss latency
system.cpu.dcache.ReadReq_avg_mshr_miss_latency::.cpu.data 310386.958799                       # average ReadReq mshr miss latency
system.cpu.dcache.ReadReq_avg_mshr_miss_latency::total 310386.958799                       # average ReadReq mshr miss latency
system.cpu.dcache.ReadReq_hits::.cpu.data     14658388                       # number of ReadReq hits
system.cpu.dcache.ReadReq_hits::total        14658388                       # number of ReadReq hits
system.cpu.dcache.ReadReq_miss_latency::.cpu.data   1783624500                       # number of ReadReq miss cycles
system.cpu.dcache.ReadReq_miss_latency::total   1783624500                       # number of ReadReq miss cycles
system.cpu.dcache.ReadReq_miss_rate::.cpu.data     0.000391                       # miss rate for ReadReq accesses
system.cpu.dcache.ReadReq_miss_rate::total     0.000391                       # miss rate for ReadReq accesses
system.cpu.dcache.ReadReq_misses::.cpu.data         5728                       # number of ReadReq misses
system.cpu.dcache.ReadReq_misses::total          5728                       # number of ReadReq misses
system.cpu.dcache.ReadReq_mshr_miss_latency::.cpu.data   1777896500                       # number of ReadReq MSHR miss cycles
system.cpu.dcache.ReadReq_mshr_miss_latency::total   1777896500                       # number of ReadReq MSHR miss cycles
system.cpu.dcache.ReadReq_mshr_miss_rate::.cpu.data     0.000391                       # mshr miss rate for ReadReq accesses
system.cpu.dcache.ReadReq_mshr_miss_rate::total     0.000391                       # mshr miss rate for ReadReq accesses
system.cpu.dcache.ReadReq_mshr_misses::.cpu.data         5728                       # number of ReadReq MSHR misses
system.cpu.dcache.ReadReq_mshr_misses::total         5728                       # number of ReadReq MSHR misses
system.cpu.dcache.WriteReq_accesses::.cpu.data     70485123                       # number of WriteReq accesses(hits+misses)
system.cpu.dcache.WriteReq_accesses::total     70485123                       # number of WriteReq accesses(hits+misses)
system.cpu.dcache.WriteReq_avg_miss_latency::.cpu.data 89263.596490                       # average WriteReq miss latency
system.cpu.dcache.WriteReq_avg_miss_latency::total 89263.596490                       # average WriteReq miss latency
system.cpu.dcache.WriteReq_avg_mshr_miss_latency::.cpu.data 88263.596490                       # average WriteReq mshr miss latency
system.cpu.dcache.WriteReq_avg_mshr_miss_latency::total 88263.596490                       # average WriteReq mshr miss latency
system.cpu.dcache.WriteReq_hits::.cpu.data     62195318                       # number of WriteReq hits
system.cpu.dcache.WriteReq_hits::total       62195318                       # number of WriteReq hits
system.cpu.dcache.WriteReq_miss_latency::.cpu.data 739977808500                       # number of WriteReq miss cycles
system.cpu.dcache.WriteReq_miss_latency::total 739977808500                       # number of WriteReq miss cycles
system.cpu.dcache.WriteReq_miss_rate::.cpu.data     0.117611                       # miss rate for WriteReq accesses
system.cpu.dcache.WriteReq_miss_rate::total     0.117611                       # miss rate for WriteReq accesses
system.cpu.dcache.WriteReq_misses::.cpu.data      8289805                       # number of WriteReq misses
system.cpu.dcache.WriteReq_misses::total      8289805                       # number of WriteReq misses
system.cpu.dcache.WriteReq_mshr_miss_latency::.cpu.data 731688003500                       # number of WriteReq MSHR miss cycles
system.cpu.dcache.WriteReq_mshr_miss_latency::total 731688003500                       # number of WriteReq MSHR miss cycles
system.cpu.dcache.WriteReq_mshr_miss_rate::.cpu.data     0.117611                       # mshr miss rate for WriteReq accesses
system.cpu.dcache.WriteReq_mshr_miss_rate::total     0.117611                       # mshr miss rate for WriteReq accesses
system.cpu.dcache.WriteReq_mshr_misses::.cpu.data      8289805                       # number of WriteReq MSHR misses
system.cpu.dcache.WriteReq_mshr_misses::total      8289805                       # number of WriteReq MSHR misses
system.cpu.dcache.avg_blocked_cycles::no_mshrs          nan                       # average number of cycles each access was blocked
system.cpu.dcache.avg_blocked_cycles::no_targets          nan                       # average number of cycles each access was blocked
system.cpu.dcache.blocked::no_mshrs                 0                       # number of cycles access was blocked
system.cpu.dcache.blocked::no_targets               0                       # number of cycles access was blocked
system.cpu.dcache.blocked_cycles::no_mshrs            0                       # number of cycles access was blocked
system.cpu.dcache.blocked_cycles::no_targets            0                       # number of cycles access was blocked
system.cpu.dcache.demand_accesses::.cpu.data     85149239                       # number of demand (read+write) accesses
system.cpu.dcache.demand_accesses::total     85149239                       # number of demand (read+write) accesses
system.cpu.dcache.demand_avg_miss_latency::.cpu.data 89416.970917                       # average overall miss latency
system.cpu.dcache.demand_avg_miss_latency::total 89416.970917                       # average overall miss latency
system.cpu.dcache.demand_avg_mshr_miss_latency::.cpu.data 88416.970917                       # average overall mshr miss latency
system.cpu.dcache.demand_avg_mshr_miss_latency::total 88416.970917                       # average overall mshr miss latency
system.cpu.dcache.demand_hits::.cpu.data     76853706                       # number of demand (read+write) hits
system.cpu.dcache.demand_hits::total         76853706                       # number of demand (read+write) hits
system.cpu.dcache.demand_miss_latency::.cpu.data 741761433000                       # number of demand (read+write) miss cycles
system.cpu.dcache.demand_miss_latency::total 741761433000                       # number of demand (read+write) miss cycles
system.cpu.dcache.demand_miss_rate::.cpu.data     0.097423                       # miss rate for demand accesses
system.cpu.dcache.demand_miss_rate::total     0.097423                       # miss rate for demand accesses
system.cpu.dcache.demand_misses::.cpu.data      8295533                       # number of demand (read+write) misses
system.cpu.dcache.demand_misses::total        8295533                       # number of demand (read+write) misses
system.cpu.dcache.demand_mshr_miss_latency::.cpu.data 733465900000                       # number of demand (read+write) MSHR miss cycles
system.cpu.dcache.demand_mshr_miss_latency::total 733465900000                       # number of demand (read+write) MSHR miss cycles
system.cpu.dcache.demand_mshr_miss_rate::.cpu.data     0.097423                       # mshr miss rate for demand accesses
system.cpu.dcache.demand_mshr_miss_rate::total     0.097423                       # mshr miss rate for demand accesses
system.cpu.dcache.demand_mshr_misses::.cpu.data      8295533                       # number of demand (read+write) MSHR misses
system.cpu.dcache.demand_mshr_misses::total      8295533                       # number of demand (read+write) MSHR misses
system.cpu.dcache.overall_accesses::.cpu.data     85149239                       # number of overall (read+write) accesses
system.cpu.dcache.overall_accesses::total     85149239                       # number of overall (read+write) accesses
system.cpu.dcache.overall_avg_miss_latency::.cpu.data 89416.970917                       # average overall miss latency
system.cpu.dcache.overall_avg_miss_latency::total 89416.970917                       # average overall miss latency
system.cpu.dcache.overall_avg_mshr_miss_latency::.cpu.data 88416.970917                       # average overall mshr miss latency
system.cpu.dcache.overall_avg_mshr_miss_latency::total 88416.970917                       # average overall mshr miss latency
system.cpu.dcache.overall_hits::.cpu.data     76853706                       # number of overall hits
system.cpu.dcache.overall_hits::total        76853706                       # number of overall hits
system.cpu.dcache.overall_miss_latency::.cpu.data 741761433000                       # number of overall miss cycles
system.cpu.dcache.overall_miss_latency::total 741761433000                       # number of overall miss cycles
system.cpu.dcache.overall_miss_rate::.cpu.data     0.097423                       # miss rate for overall accesses
system.cpu.dcache.overall_miss_rate::total     0.097423                       # miss rate for overall accesses
system.cpu.dcache.overall_misses::.cpu.data      8295533                       # number of overall misses
system.cpu.dcache.overall_misses::total       8295533                       # number of overall misses
system.cpu.dcache.overall_mshr_miss_latency::.cpu.data 733465900000                       # number of overall MSHR miss cycles
system.cpu.dcache.overall_mshr_miss_latency::total 733465900000                       # number of overall MSHR miss cycles
system.cpu.dcache.overall_mshr_miss_rate::.cpu.data     0.097423                       # mshr miss rate for overall accesses
system.cpu.dcache.overall_mshr_miss_rate::total     0.097423                       # mshr miss rate for overall accesses
system.cpu.dcache.overall_mshr_misses::.cpu.data      8295533                       # number of overall MSHR misses
system.cpu.dcache.overall_mshr_misses::total      8295533                       # number of overall MSHR misses
system.cpu.dcache.pwrStateResidencyTicks::UNDEFINED 957950126500                       # Cumulative time (in ticks) in various power states
system.cpu.dcache.replacements                8287341                       # number of replacements
system.cpu.dcache.tags.age_task_id_blocks_1024::0            4                       # Occupied blocks per task id
system.cpu.dcache.tags.age_task_id_blocks_1024::1            3                       # Occupied blocks per task id
system.cpu.dcache.tags.age_task_id_blocks_1024::2           43                       # Occupied blocks per task id
system.cpu.dcache.tags.age_task_id_blocks_1024::3          378                       # Occupied blocks per task id
system.cpu.dcache.tags.age_task_id_blocks_1024::4         7764                       # Occupied blocks per task id
system.cpu.dcache.tags.avg_refs             10.264469                       # Average number of references to valid blocks.
system.cpu.dcache.tags.data_accesses        178594011                       # Number of data accesses
system.cpu.dcache.tags.occ_blocks::.cpu.data  8138.044108                       # Average occupied blocks per requestor
system.cpu.dcache.tags.occ_percent::.cpu.data     0.993414                       # Average percentage of cache occupancy
system.cpu.dcache.tags.occ_percent::total     0.993414                       # Average percentage of cache occupancy
system.cpu.dcache.tags.occ_task_id_blocks::1024         8192                       # Occupied blocks per task id
system.cpu.dcache.tags.occ_task_id_percent::1024            1                       # Percentage of cache occupancy per task id
system.cpu.dcache.tags.pwrStateResidencyTicks::UNDEFINED 957950126500                       # Cumulative time (in ticks) in various power states
system.cpu.dcache.tags.sampled_refs           8295533                       # Sample count of references to valid blocks.
system.cpu.dcache.tags.tag_accesses         178594011                       # Number of tag accesses
system.cpu.dcache.tags.tagsinuse          8138.044108                       # Cycle average of tags in use
system.cpu.dcache.tags.total_refs            85149239                       # Total number of references to valid blocks.
system.cpu.dcache.tags.warmup_cycle            181500                       # Cycle when the warmup percentage was hit.
system.cpu.dcache.writebacks::.writebacks      8286841                       # number of writebacks
system.cpu.dcache.writebacks::total           8286841                       # number of writebacks
system.cpu.dtb.pwrStateResidencyTicks::UNDEFINED 957950126500                       # Cumulative time (in ticks) in various power states
system.cpu.dtb.rdAccesses                    14664116                       # TLB accesses on read requests
system.cpu.dtb.rdMisses                         12989                       # TLB misses on read requests
system.cpu.dtb.walker.pwrStateResidencyTicks::UNDEFINED 957950126500                       # Cumulative time (in ticks) in various power states
system.cpu.dtb.wrAccesses                    70485123                       # TLB accesses on write requests
system.cpu.dtb.wrMisses                        130894                       # TLB misses on write requests
system.cpu.dtb_walker_cache.avg_blocked_cycles::no_mshrs          nan                       # average number of cycles each access was blocked
system.cpu.dtb_walker_cache.avg_blocked_cycles::no_targets          nan                       # average number of cycles each access was blocked
system.cpu.dtb_walker_cache.blocked::no_mshrs            0                       # number of cycles access was blocked
system.cpu.dtb_walker_cache.blocked::no_targets            0                       # number of cycles access was blocked
system.cpu.dtb_walker_cache.blocked_cycles::no_mshrs            0                       # number of cycles access was blocked
system.cpu.dtb_walker_cache.blocked_cycles::no_targets            0                       # number of cycles access was blocked
system.cpu.dtb_walker_cache.pwrStateResidencyTicks::UNDEFINED 957950126500                       # Cumulative time (in ticks) in various power states
system.cpu.dtb_walker_cache.replacements            0                       # number of replacements
system.cpu.dtb_walker_cache.tags.avg_refs          nan                       # Average number of references to valid blocks.
system.cpu.dtb_walker_cache.tags.data_accesses            0                       # Number of data accesses
system.cpu.dtb_walker_cache.tags.pwrStateResidencyTicks::UNDEFINED 957950126500                       # Cumulative time (in ticks) in various power states
system.cpu.dtb_walker_cache.tags.sampled_refs            0                       # Sample count of references to valid blocks.
system.cpu.dtb_walker_cache.tags.tag_accesses            0                       # Number of tag accesses
system.cpu.dtb_walker_cache.tags.tagsinuse            0                       # Cycle average of tags in use
system.cpu.dtb_walker_cache.tags.total_refs            0                       # Total number of references to valid blocks.
system.cpu.dtb_walker_cache.tags.warmup_cycle            0                       # Cycle when the warmup percentage was hit.
system.cpu.icache.ReadReq_accesses::.cpu.inst    139152120                       # number of ReadReq accesses(hits+misses)
system.cpu.icache.ReadReq_accesses::total    139152120                       # number of ReadReq accesses(hits+misses)
system.cpu.icache.ReadReq_avg_miss_latency::.cpu.inst 84660.804020                       # average ReadReq miss latency
system.cpu.icache.ReadReq_avg_miss_latency::total 84660.804020                       # average ReadReq miss latency
system.cpu.icache.ReadReq_avg_mshr_miss_latency::.cpu.inst 83660.804020                       # average ReadReq mshr miss latency
system.cpu.icache.ReadReq_avg_mshr_miss_latency::total 83660.804020                       # average ReadReq mshr miss latency
system.cpu.icache.ReadReq_hits::.cpu.inst    139149931                       # number of ReadReq hits
system.cpu.icache.ReadReq_hits::total       139149931                       # number of ReadReq hits
system.cpu.icache.ReadReq_miss_latency::.cpu.inst    185322500                       # number of ReadReq miss cycles
system.cpu.icache.ReadReq_miss_latency::total    185322500                       # number of ReadReq miss cycles
system.cpu.icache.ReadReq_miss_rate::.cpu.inst     0.000016                       # miss rate for ReadReq accesses
system.cpu.icache.ReadReq_miss_rate::total     0.000016                       # miss rate for ReadReq accesses
system.cpu.icache.ReadReq_misses::.cpu.inst         2189                       # number of ReadReq misses
system.cpu.icache.ReadReq_misses::total          2189                       # number of ReadReq misses
system.cpu.icache.ReadReq_mshr_miss_latency::.cpu.inst    183133500                       # number of ReadReq MSHR miss cycles
system.cpu.icache.ReadReq_mshr_miss_latency::total    183133500                       # number of ReadReq MSHR miss cycles
system.cpu.icache.ReadReq_mshr_miss_rate::.cpu.inst     0.000016                       # mshr miss rate for ReadReq accesses
system.cpu.icache.ReadReq_mshr_miss_rate::total     0.000016                       # mshr miss rate for ReadReq accesses
system.cpu.icache.ReadReq_mshr_misses::.cpu.inst         2189                       # number of ReadReq MSHR misses
system.cpu.icache.ReadReq_mshr_misses::total         2189                       # number of ReadReq MSHR misses
system.cpu.icache.avg_blocked_cycles::no_mshrs          nan                       # average number of cycles each access was blocked
system.cpu.icache.avg_blocked_cycles::no_targets          nan                       # average number of cycles each access was blocked
system.cpu.icache.blocked::no_mshrs                 0                       # number of cycles access was blocked
system.cpu.icache.blocked::no_targets               0                       # number of cycles access was blocked
system.cpu.icache.blocked_cycles::no_mshrs            0                       # number of cycles access was blocked
system.cpu.icache.blocked_cycles::no_targets            0                       # number of cycles access was blocked
system.cpu.icache.demand_accesses::.cpu.inst    139152120                       # number of demand (read+write) accesses
system.cpu.icache.demand_accesses::total    139152120                       # number of demand (read+write) accesses
system.cpu.icache.demand_avg_miss_latency::.cpu.inst 84660.804020                       # average overall miss latency
system.cpu.icache.demand_avg_miss_latency::total 84660.804020                       # average overall miss latency
system.cpu.icache.demand_avg_mshr_miss_latency::.cpu.inst 83660.804020                       # average overall mshr miss latency
system.cpu.icache.demand_avg_mshr_miss_latency::total 83660.804020                       # average overall mshr miss latency
system.cpu.icache.demand_hits::.cpu.inst    139149931                       # number of demand (read+write) hits
system.cpu.icache.demand_hits::total        139149931                       # number of demand (read+write) hits
system.cpu.icache.demand_miss_latency::.cpu.inst    185322500                       # number of demand (read+write) miss cycles
system.cpu.icache.demand_miss_latency::total    185322500                       # number of demand (read+write) miss cycles
system.cpu.icache.demand_miss_rate::.cpu.inst     0.000016                       # miss rate for demand accesses
system.cpu.icache.demand_miss_rate::total     0.000016                       # miss rate for demand accesses
system.cpu.icache.demand_misses::.cpu.inst         2189                       # number of demand (read+write) misses
system.cpu.icache.demand_misses::total           2189                       # number of demand (read+write) misses
system.cpu.icache.demand_mshr_miss_latency::.cpu.inst    183133500                       # number of demand (read+write) MSHR miss cycles
system.cpu.icache.demand_mshr_miss_latency::total    183133500                       # number of demand (read+write) MSHR miss cycles
system.cpu.icache.demand_mshr_miss_rate::.cpu.inst     0.000016                       # mshr miss rate for demand accesses
system.cpu.icache.demand_mshr_miss_rate::total     0.000016                       # mshr miss rate for demand accesses
system.cpu.icache.demand_mshr_misses::.cpu.inst         2189                       # number of demand (read+write) MSHR misses
system.cpu.icache.demand_mshr_misses::total         2189                       # number of demand (read+write) MSHR misses
system.cpu.icache.overall_accesses::.cpu.inst    139152120                       # number of overall (read+write) accesses
system.cpu.icache.overall_accesses::total    139152120                       # number of overall (read+write) accesses
system.cpu.icache.overall_avg_miss_latency::.cpu.inst 84660.804020                       # average overall miss latency
system.cpu.icache.overall_avg_miss_latency::total 84660.804020                       # average overall miss latency
system.cpu.icache.overall_avg_mshr_miss_latency::.cpu.inst 83660.804020                       # average overall mshr miss latency
system.cpu.icache.overall_avg_mshr_miss_latency::total 83660.804020                       # average overall mshr miss latency
system.cpu.icache.overall_hits::.cpu.inst    139149931                       # number of overall hits
system.cpu.icache.overall_hits::total       139149931                       # number of overall hits
system.cpu.icache.overall_miss_latency::.cpu.inst    185322500                       # number of overall miss cycles
system.cpu.icache.overall_miss_latency::total    185322500                       # number of overall miss cycles
system.cpu.icache.overall_miss_rate::.cpu.inst     0.000016                       # miss rate for overall accesses
system.cpu.icache.overall_miss_rate::total     0.000016                       # miss rate for overall accesses
system.cpu.icache.overall_misses::.cpu.inst         2189                       # number of overall misses
system.cpu.icache.overall_misses::total          2189                       # number of overall misses
system.cpu.icache.overall_mshr_miss_latency::.cpu.inst    183133500                       # number of overall MSHR miss cycles
system.cpu.icache.overall_mshr_miss_latency::total    183133500                       # number of overall MSHR miss cycles
system.cpu.icache.overall_mshr_miss_rate::.cpu.inst     0.000016                       # mshr miss rate for overall accesses
system.cpu.icache.overall_mshr_miss_rate::total     0.000016                       # mshr miss rate for overall accesses
system.cpu.icache.overall_mshr_misses::.cpu.inst         2189                       # number of overall MSHR misses
system.cpu.icache.overall_mshr_misses::total         2189                       # number of overall MSHR misses
system.cpu.icache.pwrStateResidencyTicks::UNDEFINED 957950126500                       # Cumulative time (in ticks) in various power states
system.cpu.icache.replacements                    789                       # number of replacements
system.cpu.icache.tags.age_task_id_blocks_1024::3            1                       # Occupied blocks per task id
system.cpu.icache.tags.age_task_id_blocks_1024::4         1399                       # Occupied blocks per task id
system.cpu.icache.tags.avg_refs          63568.807675                       # Average number of references to valid blocks.
system.cpu.icache.tags.data_accesses        278306429                       # Number of data accesses
system.cpu.icache.tags.occ_blocks::.cpu.inst   618.591013                       # Average occupied blocks per requestor
system.cpu.icache.tags.occ_percent::.cpu.inst     0.302046                       # Average percentage of cache occupancy
system.cpu.icache.tags.occ_percent::total     0.302046                       # Average percentage of cache occupancy
system.cpu.icache.tags.occ_task_id_blocks::1024         1400                       # Occupied blocks per task id
system.cpu.icache.tags.occ_task_id_percent::1024     0.683594                       # Percentage of cache occupancy per task id
system.cpu.icache.tags.pwrStateResidencyTicks::UNDEFINED 957950126500                       # Cumulative time (in ticks) in various power states
system.cpu.icache.tags.sampled_refs              2189                       # Sample count of references to valid blocks.
system.cpu.icache.tags.tag_accesses         278306429                       # Number of tag accesses
system.cpu.icache.tags.tagsinuse           618.591013                       # Cycle average of tags in use
system.cpu.icache.tags.total_refs           139152120                       # Total number of references to valid blocks.
system.cpu.icache.tags.warmup_cycle             87500                       # Cycle when the warmup percentage was hit.
system.cpu.icache.writebacks::.writebacks          789                       # number of writebacks
system.cpu.icache.writebacks::total               789                       # number of writebacks
system.cpu.idle_fraction                            0                       # Percentage of idle cycles
system.cpu.interrupts.pwrStateResidencyTicks::UNDEFINED 957950126500                       # Cumulative time (in ticks) in various power states
system.cpu.itb.pwrStateResidencyTicks::UNDEFINED 957950126500                       # Cumulative time (in ticks) in various power states
system.cpu.itb.rdAccesses                           0                       # TLB accesses on read requests
system.cpu.itb.rdMisses                             0                       # TLB misses on read requests
system.cpu.itb.walker.pwrStateResidencyTicks::UNDEFINED 957950126500                       # Cumulative time (in ticks) in various power states
system.cpu.itb.wrAccesses                   139152120                       # TLB accesses on write requests
system.cpu.itb.wrMisses                            75                       # TLB misses on write requests
system.cpu.itb_walker_cache.avg_blocked_cycles::no_mshrs          nan                       # average number of cycles each access was blocked
system.cpu.itb_walker_cache.avg_blocked_cycles::no_targets          nan                       # average number of cycles each access was blocked
system.cpu.itb_walker_cache.blocked::no_mshrs            0                       # number of cycles access was blocked
system.cpu.itb_walker_cache.blocked::no_targets            0                       # number of cycles access was blocked
system.cpu.itb_walker_cache.blocked_cycles::no_mshrs            0                       # number of cycles access was blocked
system.cpu.itb_walker_cache.blocked_cycles::no_targets            0                       # number of cycles access was blocked
system.cpu.itb_walker_cache.pwrStateResidencyTicks::UNDEFINED 957950126500                       # Cumulative time (in ticks) in various power states
system.cpu.itb_walker_cache.replacements            0                       # number of replacements
system.cpu.itb_walker_cache.tags.avg_refs          nan                       # Average number of references to valid blocks.
system.cpu.itb_walker_cache.tags.data_accesses            0                       # Number of data accesses
system.cpu.itb_walker_cache.tags.pwrStateResidencyTicks::UNDEFINED 957950126500                       # Cumulative time (in ticks) in various power states
system.cpu.itb_walker_cache.tags.sampled_refs            0                       # Sample count of references to valid blocks.
system.cpu.itb_walker_cache.tags.tag_accesses            0                       # Number of tag accesses
system.cpu.itb_walker_cache.tags.tagsinuse            0                       # Cycle average of tags in use
system.cpu.itb_walker_cache.tags.total_refs            0                       # Total number of references to valid blocks.
system.cpu.itb_walker_cache.tags.warmup_cycle            0                       # Cycle when the warmup percentage was hit.
system.cpu.not_idle_fraction                        1                       # Percentage of non-idle cycles
system.cpu.numCycles                       1915900253                       # number of cpu cycles simulated
system.cpu.numWorkItemsCompleted                    0                       # number of work items this cpu completed
system.cpu.numWorkItemsStarted                      0                       # number of work items this cpu started
system.cpu.num_busy_cycles                 1915900253                       # Number of busy cycles
system.cpu.num_cc_register_reads             66390676                       # number of times the CC registers were read
system.cpu.num_cc_register_writes            58331008                       # number of times the CC registers were written
system.cpu.num_conditional_control_insts     12357318                       # number of instructions that are conditional controls
system.cpu.num_fp_alu_accesses               66079645                       # Number of float alu accesses
system.cpu.num_fp_insts                      66079645                       # number of float instructions
system.cpu.num_fp_register_reads             66107541                       # number of times the floating registers were read
system.cpu.num_fp_register_writes               34696                       # number of times the floating registers were written
system.cpu.num_func_calls                      481409                       # number of times a function call or return occured
system.cpu.num_idle_cycles                          0                       # Number of idle cycles
system.cpu.num_int_alu_accesses             180945640                       # Number of integer alu accesses
system.cpu.num_int_insts                    180945640                       # number of integer instructions
system.cpu.num_int_register_reads           393189365                       # number of times the integer registers were read
system.cpu.num_int_register_writes           97341166                       # number of times the integer registers were written
system.cpu.num_load_insts                    14663800                       # Number of load instructions
system.cpu.num_mem_refs                      85148913                       # number of memory refs
system.cpu.num_store_insts                   70485113                       # Number of store instructions
system.cpu.num_vec_alu_accesses                     0                       # Number of vector alu accesses
system.cpu.num_vec_insts                            0                       # number of vector instructions
system.cpu.num_vec_register_reads                   0                       # number of times the vector registers were read
system.cpu.num_vec_register_writes                  0                       # number of times the vector registers were written
system.cpu.op_class::No_OpClass                 17650      0.01%      0.01% # Class of executed instruction
system.cpu.op_class::IntAlu                  95763297     52.87%     52.88% # Class of executed instruction
system.cpu.op_class::IntMult                    94292      0.05%     52.93% # Class of executed instruction
system.cpu.op_class::IntDiv                     79926      0.04%     52.97% # Class of executed instruction
system.cpu.op_class::FloatAdd                    2214      0.00%     52.98% # Class of executed instruction
system.cpu.op_class::FloatCmp                       0      0.00%     52.98% # Class of executed instruction
system.cpu.op_class::FloatCvt                       0      0.00%     52.98% # Class of executed instruction
system.cpu.op_class::FloatMult                      0      0.00%     52.98% # Class of executed instruction
system.cpu.op_class::FloatMultAcc                   0      0.00%     52.98% # Class of executed instruction
system.cpu.op_class::FloatDiv                       0      0.00%     52.98% # Class of executed instruction
system.cpu.op_class::FloatMisc                      0      0.00%     52.98% # Class of executed instruction
system.cpu.op_class::FloatSqrt                      0      0.00%     52.98% # Class of executed instruction
system.cpu.op_class::SimdAdd                        0      0.00%     52.98% # Class of executed instruction
system.cpu.op_class::SimdAddAcc                     0      0.00%     52.98% # Class of executed instruction
system.cpu.op_class::SimdAlu                     4490      0.00%     52.98% # Class of executed instruction
system.cpu.op_class::SimdCmp                       12      0.00%     52.98% # Class of executed instruction
system.cpu.op_class::SimdCvt                     5116      0.00%     52.98% # Class of executed instruction
system.cpu.op_class::SimdMisc                   18029      0.01%     52.99% # Class of executed instruction
system.cpu.op_class::SimdMult                       0      0.00%     52.99% # Class of executed instruction
system.cpu.op_class::SimdMultAcc                    0      0.00%     52.99% # Class of executed instruction
system.cpu.op_class::SimdShift                      0      0.00%     52.99% # Class of executed instruction
system.cpu.op_class::SimdShiftAcc                   0      0.00%     52.99% # Class of executed instruction
system.cpu.op_class::SimdDiv                        0      0.00%     52.99% # Class of executed instruction
system.cpu.op_class::SimdSqrt                       0      0.00%     52.99% # Class of executed instruction
system.cpu.op_class::SimdFloatAdd                   0      0.00%     52.99% # Class of executed instruction
system.cpu.op_class::SimdFloatAlu                   0      0.00%     52.99% # Class of executed instruction
system.cpu.op_class::SimdFloatCmp                   0      0.00%     52.99% # Class of executed instruction
system.cpu.op_class::SimdFloatCvt                  29      0.00%     52.99% # Class of executed instruction
system.cpu.op_class::SimdFloatDiv                   5      0.00%     52.99% # Class of executed instruction
system.cpu.op_class::SimdFloatMisc                  0      0.00%     52.99% # Class of executed instruction
system.cpu.op_class::SimdFloatMult                  5      0.00%     52.99% # Class of executed instruction
system.cpu.op_class::SimdFloatMultAcc               0      0.00%     52.99% # Class of executed instruction
system.cpu.op_class::SimdFloatSqrt                  0      0.00%     52.99% # Class of executed instruction
system.cpu.op_class::SimdReduceAdd                  0      0.00%     52.99% # Class of executed instruction
system.cpu.op_class::SimdReduceAlu                  0      0.00%     52.99% # Class of executed instruction
system.cpu.op_class::SimdReduceCmp                  0      0.00%     52.99% # Class of executed instruction
system.cpu.op_class::SimdFloatReduceAdd             0      0.00%     52.99% # Class of executed instruction
system.cpu.op_class::SimdFloatReduceCmp             0      0.00%     52.99% # Class of executed instruction
system.cpu.op_class::SimdAes                        0      0.00%     52.99% # Class of executed instruction
system.cpu.op_class::SimdAesMix                     0      0.00%     52.99% # Class of executed instruction
system.cpu.op_class::SimdSha1Hash                   0      0.00%     52.99% # Class of executed instruction
system.cpu.op_class::SimdSha1Hash2                  0      0.00%     52.99% # Class of executed instruction
system.cpu.op_class::SimdSha256Hash                 0      0.00%     52.99% # Class of executed instruction
system.cpu.op_class::SimdSha256Hash2                0      0.00%     52.99% # Class of executed instruction
system.cpu.op_class::SimdShaSigma2                  0      0.00%     52.99% # Class of executed instruction
system.cpu.op_class::SimdShaSigma3                  0      0.00%     52.99% # Class of executed instruction
system.cpu.op_class::SimdPredAlu                    0      0.00%     52.99% # Class of executed instruction
system.cpu.op_class::MemRead                 14661131      8.09%     61.09% # Class of executed instruction
system.cpu.op_class::MemWrite                 4442793      2.45%     63.54% # Class of executed instruction
system.cpu.op_class::FloatMemRead                2669      0.00%     63.54% # Class of executed instruction
system.cpu.op_class::FloatMemWrite           66042320     36.46%    100.00% # Class of executed instruction
system.cpu.op_class::IprAccess                      0      0.00%    100.00% # Class of executed instruction
system.cpu.op_class::InstPrefetch                   0      0.00%    100.00% # Class of executed instruction
system.cpu.op_class::total                  181133978                       # Class of executed instruction
system.cpu.pwrStateResidencyTicks::ON    957950126500                       # Cumulative time (in ticks) in various power states
system.cpu.workload.numSyscalls                   146                       # Number of system calls
system.cpu_clk_domain.clock                       500                       # Clock period in ticks
system.cpu_voltage_domain.voltage                   1                       # Voltage in Volts
system.l2.CleanEvict_mshr_miss_rate::.writebacks          inf                       # mshr miss rate for CleanEvict accesses
system.l2.CleanEvict_mshr_miss_rate::total          inf                       # mshr miss rate for CleanEvict accesses
system.l2.CleanEvict_mshr_misses::.writebacks          289                       # number of CleanEvict MSHR misses
system.l2.CleanEvict_mshr_misses::total           289                       # number of CleanEvict MSHR misses
system.l2.ReadCleanReq_accesses::.cpu.inst         2189                       # number of ReadCleanReq accesses(hits+misses)
system.l2.ReadCleanReq_accesses::total           2189                       # number of ReadCleanReq accesses(hits+misses)
system.l2.ReadCleanReq_avg_miss_latency::.cpu.inst 109336.168872                       # average ReadCleanReq miss latency
system.l2.ReadCleanReq_avg_miss_latency::total 109336.168872                       # average ReadCleanReq miss latency
system.l2.ReadCleanReq_avg_mshr_miss_latency::.cpu.inst 99336.168872                       # average ReadCleanReq mshr miss latency
system.l2.ReadCleanReq_avg_mshr_miss_latency::total 99336.168872                       # average ReadCleanReq mshr miss latency
system.l2.ReadCleanReq_hits::.cpu.inst            602                       # number of ReadCleanReq hits
system.l2.ReadCleanReq_hits::total                602                       # number of ReadCleanReq hits
system.l2.ReadCleanReq_miss_latency::.cpu.inst    173516500                       # number of ReadCleanReq miss cycles
system.l2.ReadCleanReq_miss_latency::total    173516500                       # number of ReadCleanReq miss cycles
system.l2.ReadCleanReq_miss_rate::.cpu.inst     0.724989                       # miss rate for ReadCleanReq accesses
system.l2.ReadCleanReq_miss_rate::total      0.724989                       # miss rate for ReadCleanReq accesses
system.l2.ReadCleanReq_misses::.cpu.inst         1587                       # number of ReadCleanReq misses
system.l2.ReadCleanReq_misses::total             1587                       # number of ReadCleanReq misses
system.l2.ReadCleanReq_mshr_miss_latency::.cpu.inst    157646500                       # number of ReadCleanReq MSHR miss cycles
system.l2.ReadCleanReq_mshr_miss_latency::total    157646500                       # number of ReadCleanReq MSHR miss cycles
system.l2.ReadCleanReq_mshr_miss_rate::.cpu.inst     0.724989                       # mshr miss rate for ReadCleanReq accesses
system.l2.ReadCleanReq_mshr_miss_rate::total     0.724989                       # mshr miss rate for ReadCleanReq accesses
system.l2.ReadCleanReq_mshr_misses::.cpu.inst         1587                       # number of ReadCleanReq MSHR misses
system.l2.ReadCleanReq_mshr_misses::total         1587                       # number of ReadCleanReq MSHR misses
system.l2.ReadExReq_accesses::.cpu.data       8289805                       # number of ReadExReq accesses(hits+misses)
system.l2.ReadExReq_accesses::total           8289805                       # number of ReadExReq accesses(hits+misses)
system.l2.ReadExReq_avg_miss_latency::.cpu.data 86764.461270                       # average ReadExReq miss latency
system.l2.ReadExReq_avg_miss_latency::total 86764.461270                       # average ReadExReq miss latency
system.l2.ReadExReq_avg_mshr_miss_latency::.cpu.data 76764.461270                       # average ReadExReq mshr miss latency
system.l2.ReadExReq_avg_mshr_miss_latency::total 76764.461270                       # average ReadExReq mshr miss latency
system.l2.ReadExReq_hits::.cpu.data                94                       # number of ReadExReq hits
system.l2.ReadExReq_hits::total                    94                       # number of ReadExReq hits
system.l2.ReadExReq_miss_latency::.cpu.data 719252309000                       # number of ReadExReq miss cycles
system.l2.ReadExReq_miss_latency::total  719252309000                       # number of ReadExReq miss cycles
system.l2.ReadExReq_miss_rate::.cpu.data     0.999989                       # miss rate for ReadExReq accesses
system.l2.ReadExReq_miss_rate::total         0.999989                       # miss rate for ReadExReq accesses
system.l2.ReadExReq_misses::.cpu.data         8289711                       # number of ReadExReq misses
system.l2.ReadExReq_misses::total             8289711                       # number of ReadExReq misses
system.l2.ReadExReq_mshr_miss_latency::.cpu.data 636355199000                       # number of ReadExReq MSHR miss cycles
system.l2.ReadExReq_mshr_miss_latency::total 636355199000                       # number of ReadExReq MSHR miss cycles
system.l2.ReadExReq_mshr_miss_rate::.cpu.data     0.999989                       # mshr miss rate for ReadExReq accesses
system.l2.ReadExReq_mshr_miss_rate::total     0.999989                       # mshr miss rate for ReadExReq accesses
system.l2.ReadExReq_mshr_misses::.cpu.data      8289711                       # number of ReadExReq MSHR misses
system.l2.ReadExReq_mshr_misses::total        8289711                       # number of ReadExReq MSHR misses
system.l2.ReadSharedReq_accesses::.cpu.data         5728                       # number of ReadSharedReq accesses(hits+misses)
system.l2.ReadSharedReq_accesses::total          5728                       # number of ReadSharedReq accesses(hits+misses)
system.l2.ReadSharedReq_avg_miss_latency::.cpu.data 317847.239705                       # average ReadSharedReq miss latency
system.l2.ReadSharedReq_avg_miss_latency::total 317847.239705                       # average ReadSharedReq miss latency
system.l2.ReadSharedReq_avg_mshr_miss_latency::.cpu.data 307847.239705                       # average ReadSharedReq mshr miss latency
system.l2.ReadSharedReq_avg_mshr_miss_latency::total 307847.239705                       # average ReadSharedReq mshr miss latency
system.l2.ReadSharedReq_hits::.cpu.data           167                       # number of ReadSharedReq hits
system.l2.ReadSharedReq_hits::total               167                       # number of ReadSharedReq hits
system.l2.ReadSharedReq_miss_latency::.cpu.data   1767548500                       # number of ReadSharedReq miss cycles
system.l2.ReadSharedReq_miss_latency::total   1767548500                       # number of ReadSharedReq miss cycles
system.l2.ReadSharedReq_miss_rate::.cpu.data     0.970845                       # miss rate for ReadSharedReq accesses
system.l2.ReadSharedReq_miss_rate::total     0.970845                       # miss rate for ReadSharedReq accesses
system.l2.ReadSharedReq_misses::.cpu.data         5561                       # number of ReadSharedReq misses
system.l2.ReadSharedReq_misses::total            5561                       # number of ReadSharedReq misses
system.l2.ReadSharedReq_mshr_miss_latency::.cpu.data   1711938500                       # number of ReadSharedReq MSHR miss cycles
system.l2.ReadSharedReq_mshr_miss_latency::total   1711938500                       # number of ReadSharedReq MSHR miss cycles
system.l2.ReadSharedReq_mshr_miss_rate::.cpu.data     0.970845                       # mshr miss rate for ReadSharedReq accesses
system.l2.ReadSharedReq_mshr_miss_rate::total     0.970845                       # mshr miss rate for ReadSharedReq accesses
system.l2.ReadSharedReq_mshr_misses::.cpu.data         5561                       # number of ReadSharedReq MSHR misses
system.l2.ReadSharedReq_mshr_misses::total         5561                       # number of ReadSharedReq MSHR misses
system.l2.WritebackClean_accesses::.writebacks          789                       # number of WritebackClean accesses(hits+misses)
system.l2.WritebackClean_accesses::total          789                       # number of WritebackClean accesses(hits+misses)
system.l2.WritebackClean_hits::.writebacks          789                       # number of WritebackClean hits
system.l2.WritebackClean_hits::total              789                       # number of WritebackClean hits
system.l2.WritebackDirty_accesses::.writebacks      8286841                       # number of WritebackDirty accesses(hits+misses)
system.l2.WritebackDirty_accesses::total      8286841                       # number of WritebackDirty accesses(hits+misses)
system.l2.WritebackDirty_hits::.writebacks      8286841                       # number of WritebackDirty hits
system.l2.WritebackDirty_hits::total          8286841                       # number of WritebackDirty hits
system.l2.avg_blocked_cycles::no_mshrs            nan                       # average number of cycles each access was blocked
system.l2.avg_blocked_cycles::no_targets          nan                       # average number of cycles each access was blocked
system.l2.blocked::no_mshrs                         0                       # number of cycles access was blocked
system.l2.blocked::no_targets                       0                       # number of cycles access was blocked
system.l2.blocked_cycles::no_mshrs                  0                       # number of cycles access was blocked
system.l2.blocked_cycles::no_targets                0                       # number of cycles access was blocked
system.l2.demand_accesses::.cpu.inst             2189                       # number of demand (read+write) accesses
system.l2.demand_accesses::.cpu.data          8295533                       # number of demand (read+write) accesses
system.l2.demand_accesses::total              8297722                       # number of demand (read+write) accesses
system.l2.demand_avg_miss_latency::.cpu.inst 109336.168872                       # average overall miss latency
system.l2.demand_avg_miss_latency::.cpu.data 86919.374976                       # average overall miss latency
system.l2.demand_avg_miss_latency::total 86923.662798                       # average overall miss latency
system.l2.demand_avg_mshr_miss_latency::.cpu.inst 99336.168872                       # average overall mshr miss latency
system.l2.demand_avg_mshr_miss_latency::.cpu.data 76919.374976                       # average overall mshr miss latency
system.l2.demand_avg_mshr_miss_latency::total 76923.662798                       # average overall mshr miss latency
system.l2.demand_hits::.cpu.inst                  602                       # number of demand (read+write) hits
system.l2.demand_hits::.cpu.data                  261                       # number of demand (read+write) hits
system.l2.demand_hits::total                      863                       # number of demand (read+write) hits
system.l2.demand_miss_latency::.cpu.inst    173516500                       # number of demand (read+write) miss cycles
system.l2.demand_miss_latency::.cpu.data 721019857500                       # number of demand (read+write) miss cycles
system.l2.demand_miss_latency::total     721193374000                       # number of demand (read+write) miss cycles
system.l2.demand_miss_rate::.cpu.inst        0.724989                       # miss rate for demand accesses
system.l2.demand_miss_rate::.cpu.data        0.999969                       # miss rate for demand accesses
system.l2.demand_miss_rate::total            0.999896                       # miss rate for demand accesses
system.l2.demand_misses::.cpu.inst               1587                       # number of demand (read+write) misses
system.l2.demand_misses::.cpu.data            8295272                       # number of demand (read+write) misses
system.l2.demand_misses::total                8296859                       # number of demand (read+write) misses
system.l2.demand_mshr_miss_latency::.cpu.inst    157646500                       # number of demand (read+write) MSHR miss cycles
system.l2.demand_mshr_miss_latency::.cpu.data 638067137500                       # number of demand (read+write) MSHR miss cycles
system.l2.demand_mshr_miss_latency::total 638224784000                       # number of demand (read+write) MSHR miss cycles
system.l2.demand_mshr_miss_rate::.cpu.inst     0.724989                       # mshr miss rate for demand accesses
system.l2.demand_mshr_miss_rate::.cpu.data     0.999969                       # mshr miss rate for demand accesses
system.l2.demand_mshr_miss_rate::total       0.999896                       # mshr miss rate for demand accesses
system.l2.demand_mshr_misses::.cpu.inst          1587                       # number of demand (read+write) MSHR misses
system.l2.demand_mshr_misses::.cpu.data       8295272                       # number of demand (read+write) MSHR misses
system.l2.demand_mshr_misses::total           8296859                       # number of demand (read+write) MSHR misses
system.l2.overall_accesses::.cpu.inst            2189                       # number of overall (read+write) accesses
system.l2.overall_accesses::.cpu.data         8295533                       # number of overall (read+write) accesses
system.l2.overall_accesses::total             8297722                       # number of overall (read+write) accesses
system.l2.overall_avg_miss_latency::.cpu.inst 109336.168872                       # average overall miss latency
system.l2.overall_avg_miss_latency::.cpu.data 86919.374976                       # average overall miss latency
system.l2.overall_avg_miss_latency::total 86923.662798                       # average overall miss latency
system.l2.overall_avg_mshr_miss_latency::.cpu.inst 99336.168872                       # average overall mshr miss latency
system.l2.overall_avg_mshr_miss_latency::.cpu.data 76919.374976                       # average overall mshr miss latency
system.l2.overall_avg_mshr_miss_latency::total 76923.662798                       # average overall mshr miss latency
system.l2.overall_hits::.cpu.inst                 602                       # number of overall hits
system.l2.overall_hits::.cpu.data                 261                       # number of overall hits
system.l2.overall_hits::total                     863                       # number of overall hits
system.l2.overall_miss_latency::.cpu.inst    173516500                       # number of overall miss cycles
system.l2.overall_miss_latency::.cpu.data 721019857500                       # number of overall miss cycles
system.l2.overall_miss_latency::total    721193374000                       # number of overall miss cycles
system.l2.overall_miss_rate::.cpu.inst       0.724989                       # miss rate for overall accesses
system.l2.overall_miss_rate::.cpu.data       0.999969                       # miss rate for overall accesses
system.l2.overall_miss_rate::total           0.999896                       # miss rate for overall accesses
system.l2.overall_misses::.cpu.inst              1587                       # number of overall misses
system.l2.overall_misses::.cpu.data           8295272                       # number of overall misses
system.l2.overall_misses::total               8296859                       # number of overall misses
system.l2.overall_mshr_miss_latency::.cpu.inst    157646500                       # number of overall MSHR miss cycles
system.l2.overall_mshr_miss_latency::.cpu.data 638067137500                       # number of overall MSHR miss cycles
system.l2.overall_mshr_miss_latency::total 638224784000                       # number of overall MSHR miss cycles
system.l2.overall_mshr_miss_rate::.cpu.inst     0.724989                       # mshr miss rate for overall accesses
system.l2.overall_mshr_miss_rate::.cpu.data     0.999969                       # mshr miss rate for overall accesses
system.l2.overall_mshr_miss_rate::total      0.999896                       # mshr miss rate for overall accesses
system.l2.overall_mshr_misses::.cpu.inst         1587                       # number of overall MSHR misses
system.l2.overall_mshr_misses::.cpu.data      8295272                       # number of overall MSHR misses
system.l2.overall_mshr_misses::total          8296859                       # number of overall MSHR misses
system.l2.pwrStateResidencyTicks::UNDEFINED 957950126500                       # Cumulative time (in ticks) in various power states
system.l2.replacements                        8346061                       # number of replacements
system.l2.tags.age_task_id_blocks_1024::0            6                       # Occupied blocks per task id
system.l2.tags.age_task_id_blocks_1024::1            4                       # Occupied blocks per task id
system.l2.tags.age_task_id_blocks_1024::2           52                       # Occupied blocks per task id
system.l2.tags.age_task_id_blocks_1024::3          499                       # Occupied blocks per task id
system.l2.tags.age_task_id_blocks_1024::4        15823                       # Occupied blocks per task id
system.l2.tags.avg_refs                      1.983339                       # Average number of references to valid blocks.
system.l2.tags.data_accesses                 24948296                       # Number of data accesses
system.l2.tags.occ_blocks::.writebacks     170.236096                       # Average occupied blocks per requestor
system.l2.tags.occ_blocks::.cpu.inst        38.687023                       # Average occupied blocks per requestor
system.l2.tags.occ_blocks::.cpu.data     16044.950229                       # Average occupied blocks per requestor
system.l2.tags.occ_percent::.writebacks      0.010390                       # Average percentage of cache occupancy
system.l2.tags.occ_percent::.cpu.inst        0.002361                       # Average percentage of cache occupancy
system.l2.tags.occ_percent::.cpu.data        0.979306                       # Average percentage of cache occupancy
system.l2.tags.occ_percent::total            0.992058                       # Average percentage of cache occupancy
system.l2.tags.occ_task_id_blocks::1024         16384                       # Occupied blocks per task id
system.l2.tags.occ_task_id_percent::1024            1                       # Percentage of cache occupancy per task id
system.l2.tags.pwrStateResidencyTicks::UNDEFINED 957950126500                       # Cumulative time (in ticks) in various power states
system.l2.tags.sampled_refs                   8362445                       # Sample count of references to valid blocks.
system.l2.tags.tag_accesses                  24948296                       # Number of tag accesses
system.l2.tags.tagsinuse                 16253.873348                       # Cycle average of tags in use
system.l2.tags.total_refs                    16585562                       # Total number of references to valid blocks.
system.l2.tags.warmup_cycle                     77000                       # Cycle when the warmup percentage was hit.
system.l2.writebacks::.writebacks             8275707                       # number of writebacks
system.l2.writebacks::total                   8275707                       # number of writebacks
system.mem_ctrls.avgBusLat                    5000.00                       # Average bus latency per DRAM burst
system.mem_ctrls.avgGap                      57803.26                       # Average gap between requests
system.mem_ctrls.avgMemAccLat                36165.16                       # Average memory access latency per DRAM burst
system.mem_ctrls.avgPriority_.writebacks::samples   8275707.00                       # Average QoS priority value for accepted requests
system.mem_ctrls.avgPriority_.cpu.inst::samples      1587.00                       # Average QoS priority value for accepted requests
system.mem_ctrls.avgPriority_.cpu.data::samples   8295271.00                       # Average QoS priority value for accepted requests
system.mem_ctrls.avgQLat                     17415.16                       # Average queueing delay per DRAM burst
system.mem_ctrls.avgRdBW                       554.31                       # Average DRAM read bandwidth in MiByte/s
system.mem_ctrls.avgRdBWSys                    554.31                       # Average system read bandwidth in MiByte/s
system.mem_ctrls.avgRdQLen                       1.00                       # Average read queue length when enqueuing
system.mem_ctrls.avgWrBW                       552.89                       # Average achieved write bandwidth in MiByte/s
system.mem_ctrls.avgWrBWSys                    552.89                       # Average system write bandwidth in MiByte/s
system.mem_ctrls.avgWrQLen                      25.68                       # Average write queue length when enqueuing
system.mem_ctrls.busUtil                         8.65                       # Data bus utilization in percentage
system.mem_ctrls.busUtilRead                     4.33                       # Data bus utilization in percentage for reads
system.mem_ctrls.busUtilWrite                    4.32                       # Data bus utilization in percentage for writes
system.mem_ctrls.bw_inst_read::.cpu.inst       106026                       # Instruction read bandwidth from this memory (bytes/s)
system.mem_ctrls.bw_inst_read::total           106026                       # Instruction read bandwidth from this memory (bytes/s)
system.mem_ctrls.bw_read::.cpu.inst            106026                       # Total read bandwidth from this memory (bytes/s)
system.mem_ctrls.bw_read::.cpu.data         554201511                       # Total read bandwidth from this memory (bytes/s)
system.mem_ctrls.bw_read::total             554307538                       # Total read bandwidth from this memory (bytes/s)
system.mem_ctrls.bw_total::.writebacks      552894387                       # Total bandwidth to/from this memory (bytes/s)
system.mem_ctrls.bw_total::.cpu.inst           106026                       # Total bandwidth to/from this memory (bytes/s)
system.mem_ctrls.bw_total::.cpu.data        554201511                       # Total bandwidth to/from this memory (bytes/s)
system.mem_ctrls.bw_total::total           1107201925                       # Total bandwidth to/from this memory (bytes/s)
system.mem_ctrls.bw_write::.writebacks      552894387                       # Write bandwidth from this memory (bytes/s)
system.mem_ctrls.bw_write::total            552894387                       # Write bandwidth from this memory (bytes/s)
system.mem_ctrls.bytesPerActivate::samples      1281438                       # Bytes accessed per row activation
system.mem_ctrls.bytesPerActivate::mean    827.697184                       # Bytes accessed per row activation
system.mem_ctrls.bytesPerActivate::gmean   723.616165                       # Bytes accessed per row activation
system.mem_ctrls.bytesPerActivate::stdev   303.195514                       # Bytes accessed per row activation
system.mem_ctrls.bytesPerActivate::0-127        33485      2.61%      2.61% # Bytes accessed per row activation
system.mem_ctrls.bytesPerActivate::128-255        51922      4.05%      6.66% # Bytes accessed per row activation
system.mem_ctrls.bytesPerActivate::256-383        69389      5.41%     12.08% # Bytes accessed per row activation
system.mem_ctrls.bytesPerActivate::384-511        79615      6.21%     18.29% # Bytes accessed per row activation
system.mem_ctrls.bytesPerActivate::512-639        93626      7.31%     25.60% # Bytes accessed per row activation
system.mem_ctrls.bytesPerActivate::640-767        49471      3.86%     29.46% # Bytes accessed per row activation
system.mem_ctrls.bytesPerActivate::768-895        38705      3.02%     32.48% # Bytes accessed per row activation
system.mem_ctrls.bytesPerActivate::896-1023        40102      3.13%     35.61% # Bytes accessed per row activation
system.mem_ctrls.bytesPerActivate::1024-1151       825123     64.39%    100.00% # Bytes accessed per row activation
system.mem_ctrls.bytesPerActivate::total      1281438                       # Bytes accessed per row activation
system.mem_ctrls.bytesReadDRAM              530998912                       # Total number of bytes read from DRAM
system.mem_ctrls.bytesReadSys               530998976                       # Total read bytes from the system interface side
system.mem_ctrls.bytesReadWrQ                      64                       # Total number of bytes read from write queue
system.mem_ctrls.bytesWritten               529644224                       # Total number of bytes written to DRAM
system.mem_ctrls.bytesWrittenSys            529645248                       # Total written bytes from the system interface side
system.mem_ctrls.bytes_inst_read::.cpu.inst       101568                       # Number of instructions bytes read from this memory
system.mem_ctrls.bytes_inst_read::total        101568                       # Number of instructions bytes read from this memory
system.mem_ctrls.bytes_read::.cpu.inst         101568                       # Number of bytes read from this memory
system.mem_ctrls.bytes_read::.cpu.data      530897408                       # Number of bytes read from this memory
system.mem_ctrls.bytes_read::total          530998976                       # Number of bytes read from this memory
system.mem_ctrls.bytes_written::.writebacks    529645248                       # Number of bytes written to this memory
system.mem_ctrls.bytes_written::total       529645248                       # Number of bytes written to this memory
system.mem_ctrls.masterReadAccesses::.cpu.inst         1587                       # Per-master read serviced memory accesses
system.mem_ctrls.masterReadAccesses::.cpu.data      8295272                       # Per-master read serviced memory accesses
system.mem_ctrls.masterReadAvgLat::.cpu.inst     58505.36                       # Per-master read average memory access latency
system.mem_ctrls.masterReadAvgLat::.cpu.data     36160.88                       # Per-master read average memory access latency
system.mem_ctrls.masterReadBytes::.cpu.inst       101568                       # Per-master bytes read from memory
system.mem_ctrls.masterReadBytes::.cpu.data    530897344                       # Per-master bytes read from memory
system.mem_ctrls.masterReadRate::.cpu.inst 106026.396563140908                       # Per-master bytes read from memory rate (Bytes/sec)
system.mem_ctrls.masterReadRate::.cpu.data 554201444.640656828880                       # Per-master bytes read from memory rate (Bytes/sec)
system.mem_ctrls.masterReadTotalLat::.cpu.inst     92848000                       # Per-master read total memory access latency
system.mem_ctrls.masterReadTotalLat::.cpu.data 299964373161                       # Per-master read total memory access latency
system.mem_ctrls.masterWriteAccesses::.writebacks      8275707                       # Per-master write serviced memory accesses
system.mem_ctrls.masterWriteAvgLat::.writebacks   2826218.63                       # Per-master write average memory access latency
system.mem_ctrls.masterWriteBytes::.writebacks    529644224                       # Per-master bytes write to memory
system.mem_ctrls.masterWriteRate::.writebacks 552893318.084446191788                       # Per-master bytes write to memory rate (Bytes/sec)
system.mem_ctrls.masterWriteTotalLat::.writebacks 23388957274234                       # Per-master write total memory access latency
system.mem_ctrls.mergedWrBursts                     0                       # Number of DRAM write bursts merged with an existing one
system.mem_ctrls.neitherReadNorWriteReqs            0                       # Number of requests that are neither read nor write
system.mem_ctrls.numRdRetry                         0                       # Number of times read queue was full causing retry
system.mem_ctrls.numReadWriteTurnArounds       516974                       # Number of turnarounds from READ to WRITE
system.mem_ctrls.numStayReadState            24482378                       # Number of times bus staying in READ state
system.mem_ctrls.numStayWriteState            7768399                       # Number of times bus staying in WRITE state
system.mem_ctrls.numWrRetry                         0                       # Number of times write queue was full causing retry
system.mem_ctrls.numWriteReadTurnArounds       516974                       # Number of turnarounds from WRITE to READ
system.mem_ctrls.num_reads::.cpu.inst            1587                       # Number of read requests responded to by this memory
system.mem_ctrls.num_reads::.cpu.data         8295272                       # Number of read requests responded to by this memory
system.mem_ctrls.num_reads::total             8296859                       # Number of read requests responded to by this memory
system.mem_ctrls.num_writes::.writebacks      8275707                       # Number of write requests responded to by this memory
system.mem_ctrls.num_writes::total            8275707                       # Number of write requests responded to by this memory
system.mem_ctrls.pageHitRate                    92.27                       # Row buffer hit rate, read and write combined
system.mem_ctrls.peakBW                      12800.00                       # Theoretical peak bandwidth in MiByte/s
system.mem_ctrls.perBankRdBursts::0            518483                       # Per bank write bursts
system.mem_ctrls.perBankRdBursts::1            518429                       # Per bank write bursts
system.mem_ctrls.perBankRdBursts::2            518436                       # Per bank write bursts
system.mem_ctrls.perBankRdBursts::3            518575                       # Per bank write bursts
system.mem_ctrls.perBankRdBursts::4            518703                       # Per bank write bursts
system.mem_ctrls.perBankRdBursts::5            518516                       # Per bank write bursts
system.mem_ctrls.perBankRdBursts::6            518375                       # Per bank write bursts
system.mem_ctrls.perBankRdBursts::7            518352                       # Per bank write bursts
system.mem_ctrls.perBankRdBursts::8            518254                       # Per bank write bursts
system.mem_ctrls.perBankRdBursts::9            518426                       # Per bank write bursts
system.mem_ctrls.perBankRdBursts::10           518591                       # Per bank write bursts
system.mem_ctrls.perBankRdBursts::11           518814                       # Per bank write bursts
system.mem_ctrls.perBankRdBursts::12           518732                       # Per bank write bursts
system.mem_ctrls.perBankRdBursts::13           518732                       # Per bank write bursts
system.mem_ctrls.perBankRdBursts::14           518707                       # Per bank write bursts
system.mem_ctrls.perBankRdBursts::15           518733                       # Per bank write bursts
system.mem_ctrls.perBankWrBursts::0            517118                       # Per bank write bursts
system.mem_ctrls.perBankWrBursts::1            517135                       # Per bank write bursts
system.mem_ctrls.perBankWrBursts::2            517161                       # Per bank write bursts
system.mem_ctrls.perBankWrBursts::3            517207                       # Per bank write bursts
system.mem_ctrls.perBankWrBursts::4            517314                       # Per bank write bursts
system.mem_ctrls.perBankWrBursts::5            517149                       # Per bank write bursts
system.mem_ctrls.perBankWrBursts::6            517076                       # Per bank write bursts
system.mem_ctrls.perBankWrBursts::7            516985                       # Per bank write bursts
system.mem_ctrls.perBankWrBursts::8            517005                       # Per bank write bursts
system.mem_ctrls.perBankWrBursts::9            517102                       # Per bank write bursts
system.mem_ctrls.perBankWrBursts::10           517258                       # Per bank write bursts
system.mem_ctrls.perBankWrBursts::11           517491                       # Per bank write bursts
system.mem_ctrls.perBankWrBursts::12           517417                       # Per bank write bursts
system.mem_ctrls.perBankWrBursts::13           517437                       # Per bank write bursts
system.mem_ctrls.perBankWrBursts::14           517423                       # Per bank write bursts
system.mem_ctrls.perBankWrBursts::15           517413                       # Per bank write bursts
system.mem_ctrls.priorityMaxLatency      0.007348853498                       # per QoS priority maximum request to response latency (s)
system.mem_ctrls.priorityMinLatency      0.000000018750                       # per QoS priority minimum request to response latency (s)
system.mem_ctrls.pwrStateResidencyTicks::UNDEFINED 957950126500                       # Cumulative time (in ticks) in various power states
system.mem_ctrls.rdPerTurnAround::samples       516974                       # Reads before turning the bus around for writes
system.mem_ctrls.rdPerTurnAround::mean      16.048886                       # Reads before turning the bus around for writes
system.mem_ctrls.rdPerTurnAround::gmean     15.940680                       # Reads before turning the bus around for writes
system.mem_ctrls.rdPerTurnAround::stdev     21.443535                       # Reads before turning the bus around for writes
system.mem_ctrls.rdPerTurnAround::0-255        516957    100.00%    100.00% # Reads before turning the bus around for writes
system.mem_ctrls.rdPerTurnAround::256-511            2      0.00%    100.00% # Reads before turning the bus around for writes
system.mem_ctrls.rdPerTurnAround::512-767            2      0.00%    100.00% # Reads before turning the bus around for writes
system.mem_ctrls.rdPerTurnAround::768-1023            1      0.00%    100.00% # Reads before turning the bus around for writes
system.mem_ctrls.rdPerTurnAround::1024-1279            5      0.00%    100.00% # Reads before turning the bus around for writes
system.mem_ctrls.rdPerTurnAround::1280-1535            2      0.00%    100.00% # Reads before turning the bus around for writes
system.mem_ctrls.rdPerTurnAround::1536-1791            1      0.00%    100.00% # Reads before turning the bus around for writes
system.mem_ctrls.rdPerTurnAround::7168-7423            3      0.00%    100.00% # Reads before turning the bus around for writes
system.mem_ctrls.rdPerTurnAround::7936-8191            1      0.00%    100.00% # Reads before turning the bus around for writes
system.mem_ctrls.rdPerTurnAround::total        516974                       # Reads before turning the bus around for writes
system.mem_ctrls.rdQLenPdf::0                 8296857                       # What read queue length does an incoming req see
system.mem_ctrls.rdQLenPdf::1                       1                       # What read queue length does an incoming req see
system.mem_ctrls.rdQLenPdf::2                       0                       # What read queue length does an incoming req see
system.mem_ctrls.rdQLenPdf::3                       0                       # What read queue length does an incoming req see
system.mem_ctrls.rdQLenPdf::4                       0                       # What read queue length does an incoming req see
system.mem_ctrls.rdQLenPdf::5                       0                       # What read queue length does an incoming req see
system.mem_ctrls.rdQLenPdf::6                       0                       # What read queue length does an incoming req see
system.mem_ctrls.rdQLenPdf::7                       0                       # What read queue length does an incoming req see
system.mem_ctrls.rdQLenPdf::8                       0                       # What read queue length does an incoming req see
system.mem_ctrls.rdQLenPdf::9                       0                       # What read queue length does an incoming req see
system.mem_ctrls.rdQLenPdf::10                      0                       # What read queue length does an incoming req see
system.mem_ctrls.rdQLenPdf::11                      0                       # What read queue length does an incoming req see
system.mem_ctrls.rdQLenPdf::12                      0                       # What read queue length does an incoming req see
system.mem_ctrls.rdQLenPdf::13                      0                       # What read queue length does an incoming req see
system.mem_ctrls.rdQLenPdf::14                      0                       # What read queue length does an incoming req see
system.mem_ctrls.rdQLenPdf::15                      0                       # What read queue length does an incoming req see
system.mem_ctrls.rdQLenPdf::16                      0                       # What read queue length does an incoming req see
system.mem_ctrls.rdQLenPdf::17                      0                       # What read queue length does an incoming req see
system.mem_ctrls.rdQLenPdf::18                      0                       # What read queue length does an incoming req see
system.mem_ctrls.rdQLenPdf::19                      0                       # What read queue length does an incoming req see
system.mem_ctrls.rdQLenPdf::20                      0                       # What read queue length does an incoming req see
system.mem_ctrls.rdQLenPdf::21                      0                       # What read queue length does an incoming req see
system.mem_ctrls.rdQLenPdf::22                      0                       # What read queue length does an incoming req see
system.mem_ctrls.rdQLenPdf::23                      0                       # What read queue length does an incoming req see
system.mem_ctrls.rdQLenPdf::24                      0                       # What read queue length does an incoming req see
system.mem_ctrls.rdQLenPdf::25                      0                       # What read queue length does an incoming req see
system.mem_ctrls.rdQLenPdf::26                      0                       # What read queue length does an incoming req see
system.mem_ctrls.rdQLenPdf::27                      0                       # What read queue length does an incoming req see
system.mem_ctrls.rdQLenPdf::28                      0                       # What read queue length does an incoming req see
system.mem_ctrls.rdQLenPdf::29                      0                       # What read queue length does an incoming req see
system.mem_ctrls.rdQLenPdf::30                      0                       # What read queue length does an incoming req see
system.mem_ctrls.rdQLenPdf::31                      0                       # What read queue length does an incoming req see
system.mem_ctrls.readBursts                   8296859                       # Number of DRAM read bursts, including those serviced by the write queue
system.mem_ctrls.readPktSize::0                     0                       # Read request sizes (log2)
system.mem_ctrls.readPktSize::1                     0                       # Read request sizes (log2)
system.mem_ctrls.readPktSize::2                     0                       # Read request sizes (log2)
system.mem_ctrls.readPktSize::3                     0                       # Read request sizes (log2)
system.mem_ctrls.readPktSize::4                     0                       # Read request sizes (log2)
system.mem_ctrls.readPktSize::5                     0                       # Read request sizes (log2)
system.mem_ctrls.readPktSize::6               8296859                       # Read request sizes (log2)
system.mem_ctrls.readReqs                     8296859                       # Number of read requests accepted
system.mem_ctrls.readRowHitRate                 91.65                       # Row buffer hit rate for reads
system.mem_ctrls.readRowHits                  7603795                       # Number of row buffer hits during reads
system.mem_ctrls.servicedByWrQ                      1                       # Number of DRAM read bursts serviced by the write queue
system.mem_ctrls.totBusLat                41484290000                       # Total ticks spent in databus transfers
system.mem_ctrls.totGap                  957948349500                       # Total gap between requests
system.mem_ctrls.totMemAccLat            300057221161                       # Total ticks spent from burst creation until serviced by the DRAM
system.mem_ctrls.totQLat                 144491133661                       # Total ticks spent queuing
system.mem_ctrls.wrPerTurnAround::samples       516974                       # Writes before turning the bus around for reads
[...]
system.mem_ctrls.wrQLenPdf::26                 516974                       # What write queue length does an incoming req see
system.mem_ctrls.wrQLenPdf::27                 516974                       # What write queue length does an incoming req see
system.mem_ctrls.wrQLenPdf::28                 516974                       # What write queue length does an incoming req see
system.mem_ctrls.wrQLenPdf::29                 516977                       # What write queue length does an incoming req see
system.mem_ctrls.wrQLenPdf::30                 517216                       # What write queue length does an incoming req see
system.mem_ctrls.wrQLenPdf::31                 517008                       # What write queue length does an incoming req see
system.mem_ctrls.wrQLenPdf::32                 519029                       # What write queue length does an incoming req see
system.mem_ctrls.wrQLenPdf::33                      9                       # What write queue length does an incoming req see
system.mem_ctrls.wrQLenPdf::34                      0                       # What write queue length does an incoming req see
system.mem_ctrls.wrQLenPdf::35                      0                       # What write queue length does an incoming req see
system.mem_ctrls.wrQLenPdf::36                      0                       # What write queue length does an incoming req see
system.mem_ctrls.wrQLenPdf::37                      0                       # What write queue length does an incoming req see
system.mem_ctrls.wrQLenPdf::38                      0                       # What write queue length does an incoming req see
system.mem_ctrls.wrQLenPdf::39                      0                       # What write queue length does an incoming req see
system.mem_ctrls.wrQLenPdf::40                      0                       # What write queue length does an incoming req see
system.mem_ctrls.wrQLenPdf::41                      0                       # What write queue length does an incoming req see
system.mem_ctrls.wrQLenPdf::42                      0                       # What write queue length does an incoming req see
system.mem_ctrls.wrQLenPdf::43                      0                       # What write queue length does an incoming req see
system.mem_ctrls.wrQLenPdf::44                      0                       # What write queue length does an incoming req see
system.mem_ctrls.wrQLenPdf::45                      0                       # What write queue length does an incoming req see
system.mem_ctrls.wrQLenPdf::46                      0                       # What write queue length does an incoming req see
system.mem_ctrls.wrQLenPdf::47                      0                       # What write queue length does an incoming req see
system.mem_ctrls.wrQLenPdf::48                      0                       # What write queue length does an incoming req see
system.mem_ctrls.wrQLenPdf::49                      0                       # What write queue length does an incoming req see
system.mem_ctrls.wrQLenPdf::50                      0                       # What write queue length does an incoming req see
system.mem_ctrls.wrQLenPdf::51                      0                       # What write queue length does an incoming req see
system.mem_ctrls.wrQLenPdf::52                      0                       # What write queue length does an incoming req see
system.mem_ctrls.wrQLenPdf::53                      0                       # What write queue length does an incoming req see
system.mem_ctrls.wrQLenPdf::54                      0                       # What write queue length does an incoming req see
system.mem_ctrls.wrQLenPdf::55                      0                       # What write queue length does an incoming req see
system.mem_ctrls.wrQLenPdf::56                      0                       # What write queue length does an incoming req see
system.mem_ctrls.wrQLenPdf::57                      0                       # What write queue length does an incoming req see
system.mem_ctrls.wrQLenPdf::58                      0                       # What write queue length does an incoming req see
system.mem_ctrls.wrQLenPdf::59                      0                       # What write queue length does an incoming req see
system.mem_ctrls.wrQLenPdf::60                      0                       # What write queue length does an incoming req see
system.mem_ctrls.wrQLenPdf::61                      0                       # What write queue length does an incoming req see
system.mem_ctrls.wrQLenPdf::62                      0                       # What write queue length does an incoming req see
system.mem_ctrls.wrQLenPdf::63                      0                       # What write queue length does an incoming req see
system.mem_ctrls.writeBursts                  8275707                       # Number of DRAM write bursts, including those merged in the write queue
system.mem_ctrls.writePktSize::0                    0                       # Write request sizes (log2)
system.mem_ctrls.writePktSize::1                    0                       # Write request sizes (log2)
system.mem_ctrls.writePktSize::2                    0                       # Write request sizes (log2)
system.mem_ctrls.writePktSize::3                    0                       # Write request sizes (log2)
system.mem_ctrls.writePktSize::4                    0                       # Write request sizes (log2)
system.mem_ctrls.writePktSize::5                    0                       # Write request sizes (log2)
system.mem_ctrls.writePktSize::6              8275707                       # Write request sizes (log2)
system.mem_ctrls.writeReqs                    8275707                       # Number of write requests accepted
system.mem_ctrls.writeRowHitRate                92.89                       # Row buffer hit rate for writes
system.mem_ctrls.writeRowHits                 7687309                       # Number of row buffer hits during writes
system.mem_ctrls_0.actBackEnergy          82446177690                       # Energy for active background per rank (pJ)
system.mem_ctrls_0.actEnergy               4574912160                       # Energy for activate commands per rank (pJ)
system.mem_ctrls_0.actPowerDownEnergy    131725486080                       # Energy for active power-down per rank (pJ)
system.mem_ctrls_0.averagePower            464.740842                       # Core power per rank (mW)
system.mem_ctrls_0.memoryStateTime::IDLE   2805126750                       # Time in different power states
system.mem_ctrls_0.memoryStateTime::REF   17906720000                       # Time in different power states
system.mem_ctrls_0.memoryStateTime::SREF 419981814000                       # Time in different power states
system.mem_ctrls_0.memoryStateTime::PRE_PDN  59348753020                       # Time in different power states
system.mem_ctrls_0.memoryStateTime::ACT  169147616745                       # Time in different power states
system.mem_ctrls_0.memoryStateTime::ACT_PDN 288760095985                       # Time in different power states
system.mem_ctrls_0.preBackEnergy           3389182560                       # Energy for precharge background per rank (pJ)
system.mem_ctrls_0.preEnergy               2431615890                       # Energy for precharge commands per rank (pJ)
system.mem_ctrls_0.prePowerDownEnergy     22791385920                       # Energy for precharge power-down per rank (pJ)
system.mem_ctrls_0.readEnergy             29615784660                       # Energy for read commands per rank (pJ)
system.mem_ctrls_0.refreshEnergy         42331486080.000008                       # Energy for refresh commands per rank (pJ)
system.mem_ctrls_0.selfRefreshEnergy     104244926040                       # Energy for self refresh per rank (pJ)
system.mem_ctrls_0.totalEnergy           445198548360                       # Total energy per rank (pJ)
system.mem_ctrls_0.totalIdleTime         768090663005                       # Total Idle time Per DRAM Rank
system.mem_ctrls_0.writeEnergy            21595896900                       # Energy for write commands per rank (pJ)
system.mem_ctrls_1.actBackEnergy          82444967010                       # Energy for active background per rank (pJ)
system.mem_ctrls_1.actEnergy               4574605140                       # Energy for activate commands per rank (pJ)
system.mem_ctrls_1.actPowerDownEnergy    131731720740                       # Energy for active power-down per rank (pJ)
system.mem_ctrls_1.averagePower            464.824374                       # Core power per rank (mW)
system.mem_ctrls_1.memoryStateTime::IDLE   2800681250                       # Time in different power states
system.mem_ctrls_1.memoryStateTime::REF   17917640000                       # Time in different power states
system.mem_ctrls_1.memoryStateTime::SREF 419659573500                       # Time in different power states
system.mem_ctrls_1.memoryStateTime::PRE_PDN  59659548008                       # Time in different power states
system.mem_ctrls_1.memoryStateTime::ACT  169139617995                       # Time in different power states
system.mem_ctrls_1.memoryStateTime::ACT_PDN 288773065747                       # Time in different power states
system.mem_ctrls_1.preBackEnergy           3388747680                       # Energy for precharge background per rank (pJ)
system.mem_ctrls_1.preEnergy               2431441320                       # Energy for precharge commands per rank (pJ)
system.mem_ctrls_1.prePowerDownEnergy     22910742720                       # Energy for precharge power-down per rank (pJ)
system.mem_ctrls_1.readEnergy             29623781460                       # Energy for read commands per rank (pJ)
system.mem_ctrls_1.refreshEnergy         42357300960.000008                       # Energy for refresh commands per rank (pJ)
system.mem_ctrls_1.selfRefreshEnergy     104159672040                       # Energy for self refresh per rank (pJ)
system.mem_ctrls_1.totalEnergy           445278567600                       # Total energy per rank (pJ)
system.mem_ctrls_1.totalIdleTime         768090381255                       # Total Idle time Per DRAM Rank
system.mem_ctrls_1.writeEnergy            21603210120                       # Energy for write commands per rank (pJ)
system.membus.pkt_count_system.l2.mem_side::system.mem_ctrls.port     24869928                       # Packet count per connected master and slave (bytes)
system.membus.pkt_count_system.l2.mem_side::total     24869928                       # Packet count per connected master and slave (bytes)
system.membus.pkt_count::total               24869928                       # Packet count per connected master and slave (bytes)
system.membus.pkt_size_system.l2.mem_side::system.mem_ctrls.port   1060644224                       # Cumulative packet size per connected master and slave (bytes)
system.membus.pkt_size_system.l2.mem_side::total   1060644224                       # Cumulative packet size per connected master and slave (bytes)
system.membus.pkt_size::total              1060644224                       # Cumulative packet size per connected master and slave (bytes)
system.membus.pwrStateResidencyTicks::UNDEFINED 957950126500                       # Cumulative time (in ticks) in various power states
system.membus.reqLayer2.occupancy         49677281759                       # Layer occupancy (ticks)
system.membus.reqLayer2.utilization               5.2                       # Layer utilization (%)
system.membus.respLayer1.occupancy        43629062089                       # Layer occupancy (ticks)
system.membus.respLayer1.utilization              4.6                       # Layer utilization (%)
system.membus.snoopTraffic                          0                       # Total snoop traffic (bytes)
system.membus.snoop_fanout::samples           8296859                       # Request fanout histogram
system.membus.snoop_fanout::mean                    0                       # Request fanout histogram
system.membus.snoop_fanout::stdev                   0                       # Request fanout histogram
system.membus.snoop_fanout::underflows              0      0.00%      0.00% # Request fanout histogram
system.membus.snoop_fanout::0                 8296859    100.00%    100.00% # Request fanout histogram
system.membus.snoop_fanout::1                       0      0.00%    100.00% # Request fanout histogram
system.membus.snoop_fanout::overflows               0      0.00%    100.00% # Request fanout histogram
system.membus.snoop_fanout::min_value               0                       # Request fanout histogram
system.membus.snoop_fanout::max_value               0                       # Request fanout histogram
system.membus.snoop_fanout::total             8296859                       # Request fanout histogram
system.membus.snoop_filter.hit_multi_requests            0                       # Number of requests hitting in the snoop filter with multiple (>1) holders of the requested data.
system.membus.snoop_filter.hit_multi_snoops            0                       # Number of snoops hitting in the snoop filter with multiple (>1) holders of the requested data.
system.membus.snoop_filter.hit_single_requests      8276210                       # Number of requests hitting in the snoop filter with a single holder of the requested data.
system.membus.snoop_filter.hit_single_snoops            0                       # Number of snoops hitting in the snoop filter with a single holder of the requested data.
system.membus.snoop_filter.tot_requests      16573069                       # Total number of requests made to the snoop filter.
system.membus.snoop_filter.tot_snoops               0                       # Total number of snoops made to the snoop filter.
system.membus.snoops                                0                       # Total snoops (count)
system.membus.trans_dist::ReadResp               7148                       # Transaction distribution
system.membus.trans_dist::WritebackDirty      8275707                       # Transaction distribution
system.membus.trans_dist::CleanEvict              503                       # Transaction distribution
system.membus.trans_dist::ReadExReq           8289711                       # Transaction distribution
system.membus.trans_dist::ReadExResp          8289711                       # Transaction distribution
system.membus.trans_dist::ReadSharedReq          7148                       # Transaction distribution
system.pwrStateResidencyTicks::UNDEFINED 957950126500                       # Cumulative time (in ticks) in various power states
system.tol2bus.pkt_count_system.cpu.icache.mem_side::system.l2.cpu_side         5167                       # Packet count per connected master and slave (bytes)
system.tol2bus.pkt_count_system.cpu.dcache.mem_side::system.l2.cpu_side     24878407                       # Packet count per connected master and slave (bytes)
system.tol2bus.pkt_count::total              24883574                       # Packet count per connected master and slave (bytes)
system.tol2bus.pkt_size_system.cpu.icache.mem_side::system.l2.cpu_side       190592                       # Cumulative packet size per connected master and slave (bytes)
system.tol2bus.pkt_size_system.cpu.dcache.mem_side::system.l2.cpu_side   1061271936                       # Cumulative packet size per connected master and slave (bytes)
system.tol2bus.pkt_size::total             1061462528                       # Cumulative packet size per connected master and slave (bytes)
system.tol2bus.pwrStateResidencyTicks::UNDEFINED 957950126500                       # Cumulative time (in ticks) in various power states
system.tol2bus.reqLayer0.occupancy        16580556000                       # Layer occupancy (ticks)
system.tol2bus.reqLayer0.utilization              1.7                       # Layer utilization (%)
system.tol2bus.respLayer0.occupancy           3283500                       # Layer occupancy (ticks)
system.tol2bus.respLayer0.utilization             0.0                       # Layer utilization (%)
system.tol2bus.respLayer1.occupancy       12443299500                       # Layer occupancy (ticks)
system.tol2bus.respLayer1.utilization             1.3                       # Layer utilization (%)
system.tol2bus.snoopTraffic                 529645248                       # Total snoop traffic (bytes)
system.tol2bus.snoop_fanout::samples         16643783                       # Request fanout histogram
system.tol2bus.snoop_fanout::mean            0.004214                       # Request fanout histogram
system.tol2bus.snoop_fanout::stdev           0.064782                       # Request fanout histogram
system.tol2bus.snoop_fanout::underflows             0      0.00%      0.00% # Request fanout histogram
system.tol2bus.snoop_fanout::0               16573642     99.58%     99.58% # Request fanout histogram
system.tol2bus.snoop_fanout::1                  70140      0.42%    100.00% # Request fanout histogram
system.tol2bus.snoop_fanout::2                      1      0.00%    100.00% # Request fanout histogram
system.tol2bus.snoop_fanout::3                      0      0.00%    100.00% # Request fanout histogram
system.tol2bus.snoop_fanout::4                      0      0.00%    100.00% # Request fanout histogram
system.tol2bus.snoop_fanout::overflows              0      0.00%    100.00% # Request fanout histogram
system.tol2bus.snoop_fanout::min_value              0                       # Request fanout histogram
system.tol2bus.snoop_fanout::max_value              2                       # Request fanout histogram
system.tol2bus.snoop_fanout::total           16643783                       # Request fanout histogram
system.tol2bus.snoop_filter.hit_multi_requests            1                       # Number of requests hitting in the snoop filter with multiple (>1) holders of the requested data.
system.tol2bus.snoop_filter.hit_multi_snoops            1                       # Number of snoops hitting in the snoop filter with multiple (>1) holders of the requested data.
system.tol2bus.snoop_filter.hit_single_requests      8288130                       # Number of requests hitting in the snoop filter with a single holder of the requested data.
system.tol2bus.snoop_filter.hit_single_snoops        70139                       # Number of snoops hitting in the snoop filter with a single holder of the requested data.
system.tol2bus.snoop_filter.tot_requests     16585852                       # Total number of requests made to the snoop filter.
system.tol2bus.snoop_filter.tot_snoops          70140                       # Total number of snoops made to the snoop filter.
system.tol2bus.snoops                         8346061                       # Total snoops (count)
system.tol2bus.trans_dist::ReadResp              7917                       # Transaction distribution
system.tol2bus.trans_dist::WritebackDirty     16562548                       # Transaction distribution
system.tol2bus.trans_dist::WritebackClean          789                       # Transaction distribution
system.tol2bus.trans_dist::CleanEvict           70854                       # Transaction distribution
system.tol2bus.trans_dist::ReadExReq          8289805                       # Transaction distribution
system.tol2bus.trans_dist::ReadExResp         8289805                       # Transaction distribution
system.tol2bus.trans_dist::ReadCleanReq          2189                       # Transaction distribution
system.tol2bus.trans_dist::ReadSharedReq         5728                       # Transaction distribution
system.voltage_domain.voltage                       1                       # Voltage in Volts

---------- End Simulation Statistics   ----------
