
---------- Begin Simulation Statistics ----------
final_tick                               957383449500                       # Number of ticks from beginning of simulation (restored from checkpoints and never reset)
host_inst_rate                                 257160                       # Simulator instruction rate (inst/s)
host_mem_usage                                 822808                       # Number of bytes of host memory used
host_op_rate                                   465804                       # Simulator op (including micro ops) rate (op/s)
host_seconds                                   388.86                       # Real time elapsed on the host
host_tick_rate                             2462008469                       # Simulator tick rate (ticks/s)
sim_freq                                 1000000000000                       # Frequency of simulated ticks
sim_insts                                   100000001                       # Number of instructions simulated
sim_ops                                     181133978                       # Number of ops (including micro ops) simulated
sim_seconds                                  0.957383                       # Number of seconds simulated
sim_ticks                                957383449500                       # Number of ticks simulated
system.clk_domain.clock                          1000                       # Clock period in ticks
system.cpu.Branches                          13383360                       # Number of branches fetched
system.cpu.apic_clk_domain.clock                 8000                       # Clock period in ticks
system.cpu.committedInsts                   100000001                       # Number of instructions committed
system.cpu.committedOps                     181133978                       # Number of ops (including micro ops) committed
system.cpu.dcache.ReadReq_accesses::.cpu.data     14664116                       # number of ReadReq accesses(hits+misses)
system.cpu.dcache.ReadReq_accesses::total     14664116                       # number of ReadReq accesses(hits+misses)
system.cpu.dcache.ReadReq_avg_miss_latency::.cpu.data 291932.008368                       # average ReadReq miss latency
system.cpu.dcache.ReadReq_avg_miss_latency::total 291932.008368                       # average ReadReq miss latency
system.cpu.dcache.ReadReq_avg_mshr_miss_latency::.cpu.data 290932.008368                       # average ReadReq mshr miss latency
system.cpu.dcache.ReadReq_avg_mshr_miss_latency::total 290932.008368                       # average ReadReq mshr miss latency
system.cpu.dcache.ReadReq_hits::.cpu.data     14657902                       # number of ReadReq hits
system.cpu.dcache.ReadReq_hits::total        14657902                       # number of ReadReq hits
system.cpu.dcache.ReadReq_miss_latency::.cpu.data   1814065500                       # number of ReadReq miss cycles
system.cpu.dcache.ReadReq_miss_latency::total   1814065500                       # number of ReadReq miss cycles
system.cpu.dcache.ReadReq_miss_rate::.cpu.data     0.000424                       # miss rate for ReadReq accesses
system.cpu.dcache.ReadReq_miss_rate::total     0.000424                       # miss rate for ReadReq accesses
system.cpu.dcache.ReadReq_misses::.cpu.data         6214                       # number of ReadReq misses
system.cpu.dcache.ReadReq_misses::total          6214                       # number of ReadReq misses
system.cpu.dcache.ReadReq_mshr_miss_latency::.cpu.data   1807851500                       # number of ReadReq MSHR miss cycles
system.cpu.dcache.ReadReq_mshr_miss_latency::total   1807851500                       # number of ReadReq MSHR miss cycles
system.cpu.dcache.ReadReq_mshr_miss_rate::.cpu.data     0.000424                       # mshr miss rate for ReadReq accesses
system.cpu.dcache.ReadReq_mshr_miss_rate::total     0.000424                       # mshr miss rate for ReadReq accesses
system.cpu.dcache.ReadReq_mshr_misses::.cpu.data         6214                       # number of ReadReq MSHR misses
system.cpu.dcache.ReadReq_mshr_misses::total         6214                       # number of ReadReq MSHR misses
system.cpu.dcache.WriteReq_accesses::.cpu.data     70485123                       # number of WriteReq accesses(hits+misses)
system.cpu.dcache.WriteReq_accesses::total     70485123                       # number of WriteReq accesses(hits+misses)
system.cpu.dcache.WriteReq_avg_miss_latency::.cpu.data 89188.972460                       # average WriteReq miss latency
system.cpu.dcache.WriteReq_avg_miss_latency::total 89188.972460                       # average WriteReq miss latency
system.cpu.dcache.WriteReq_avg_mshr_miss_latency::.cpu.data 88188.972460                       # average WriteReq mshr miss latency
system.cpu.dcache.WriteReq_avg_mshr_miss_latency::total 88188.972460                       # average WriteReq mshr miss latency
system.cpu.dcache.WriteReq_hits::.cpu.data     62195087                       # number of WriteReq hits
system.cpu.dcache.WriteReq_hits::total       62195087                       # number of WriteReq hits
system.cpu.dcache.WriteReq_miss_latency::.cpu.data 739379792500                       # number of WriteReq miss cycles
system.cpu.dcache.WriteReq_miss_latency::total 739379792500                       # number of WriteReq miss cycles
system.cpu.dcache.WriteReq_miss_rate::.cpu.data     0.117614                       # miss rate for WriteReq accesses
system.cpu.dcache.WriteReq_miss_rate::total     0.117614                       # miss rate for WriteReq accesses
system.cpu.dcache.WriteReq_misses::.cpu.data      8290036                       # number of WriteReq misses
system.cpu.dcache.WriteReq_misses::total      8290036                       # number of WriteReq misses
system.cpu.dcache.WriteReq_mshr_miss_latency::.cpu.data 731089756500                       # number of WriteReq MSHR miss cycles
system.cpu.dcache.WriteReq_mshr_miss_latency::total 731089756500                       # number of WriteReq MSHR miss cycles
system.cpu.dcache.WriteReq_mshr_miss_rate::.cpu.data     0.117614                       # mshr miss rate for WriteReq accesses
system.cpu.dcache.WriteReq_mshr_miss_rate::total     0.117614                       # mshr miss rate for WriteReq accesses
system.cpu.dcache.WriteReq_mshr_misses::.cpu.data      8290036                       # number of WriteReq MSHR misses
system.cpu.dcache.WriteReq_mshr_misses::total      8290036                       # number of WriteReq MSHR misses
system.cpu.dcache.avg_blocked_cycles::no_mshrs          nan                       # average number of cycles each access was blocked
system.cpu.dcache.avg_blocked_cycles::no_targets          nan                       # average number of cycles each access was blocked
system.cpu.dcache.blocked::no_mshrs                 0                       # number of cycles access was blocked
system.cpu.dcache.blocked::no_targets               0                       # number of cycles access was blocked
system.cpu.dcache.blocked_cycles::no_mshrs            0                       # number of cycles access was blocked
system.cpu.dcache.blocked_cycles::no_targets            0                       # number of cycles access was blocked
system.cpu.dcache.demand_accesses::.cpu.data     85149239                       # number of demand (read+write) accesses
system.cpu.dcache.demand_accesses::total     85149239                       # number of demand (read+write) accesses
system.cpu.dcache.demand_avg_miss_latency::.cpu.data 89340.829652                       # average overall miss latency
system.cpu.dcache.demand_avg_miss_latency::total 89340.829652                       # average overall miss latency
system.cpu.dcache.demand_avg_mshr_miss_latency::.cpu.data 88340.829652                       # average overall mshr miss latency
system.cpu.dcache.demand_avg_mshr_miss_latency::total 88340.829652                       # average overall mshr miss latency
system.cpu.dcache.demand_hits::.cpu.data     76852989                       # number of demand (read+write) hits
system.cpu.dcache.demand_hits::total         76852989                       # number of demand (read+write) hits
system.cpu.dcache.demand_miss_latency::.cpu.data 741193858000                       # number of demand (read+write) miss cycles
system.cpu.dcache.demand_miss_latency::total 741193858000                       # number of demand (read+write) miss cycles
system.cpu.dcache.demand_miss_rate::.cpu.data     0.097432                       # miss rate for demand accesses
system.cpu.dcache.demand_miss_rate::total     0.097432                       # miss rate for demand accesses
system.cpu.dcache.demand_misses::.cpu.data      8296250                       # number of demand (read+write) misses
system.cpu.dcache.demand_misses::total        8296250                       # number of demand (read+write) misses
system.cpu.dcache.demand_mshr_miss_latency::.cpu.data 732897608000                       # number of demand (read+write) MSHR miss cycles
system.cpu.dcache.demand_mshr_miss_latency::total 732897608000                       # number of demand (read+write) MSHR miss cycles
system.cpu.dcache.demand_mshr_miss_rate::.cpu.data     0.097432                       # mshr miss rate for demand accesses
system.cpu.dcache.demand_mshr_miss_rate::total     0.097432                       # mshr miss rate for demand accesses
system.cpu.dcache.demand_mshr_misses::.cpu.data      8296250                       # number of demand (read+write) MSHR misses
system.cpu.dcache.demand_mshr_misses::total      8296250                       # number of demand (read+write) MSHR misses
system.cpu.dcache.overall_accesses::.cpu.data     85149239                       # number of overall (read+write) accesses
system.cpu.dcache.overall_accesses::total     85149239                       # number of overall (read+write) accesses
system.cpu.dcache.overall_avg_miss_latency::.cpu.data 89340.829652                       # average overall miss latency
system.cpu.dcache.overall_avg_miss_latency::total 89340.829652                       # average overall miss latency
system.cpu.dcache.overall_avg_mshr_miss_latency::.cpu.data 88340.829652                       # average overall mshr miss latency
system.cpu.dcache.overall_avg_mshr_miss_latency::total 88340.829652                       # average overall mshr miss latency
system.cpu.dcache.overall_hits::.cpu.data     76852989                       # number of overall hits
system.cpu.dcache.overall_hits::total        76852989                       # number of overall hits
system.cpu.dcache.overall_miss_latency::.cpu.data 741193858000                       # number of overall miss cycles
system.cpu.dcache.overall_miss_latency::total 741193858000                       # number of overall miss cycles
system.cpu.dcache.overall_miss_rate::.cpu.data     0.097432                       # miss rate for overall accesses
system.cpu.dcache.overall_miss_rate::total     0.097432                       # miss rate for overall accesses
system.cpu.dcache.overall_misses::.cpu.data      8296250                       # number of overall misses
system.cpu.dcache.overall_misses::total       8296250                       # number of overall misses
system.cpu.dcache.overall_mshr_miss_latency::.cpu.data 732897608000                       # number of overall MSHR miss cycles
system.cpu.dcache.overall_mshr_miss_latency::total 732897608000                       # number of overall MSHR miss cycles
system.cpu.dcache.overall_mshr_miss_rate::.cpu.data     0.097432                       # mshr miss rate for overall accesses
system.cpu.dcache.overall_mshr_miss_rate::total     0.097432                       # mshr miss rate for overall accesses
system.cpu.dcache.overall_mshr_misses::.cpu.data      8296250                       # number of overall MSHR misses
system.cpu.dcache.overall_mshr_misses::total      8296250                       # number of overall MSHR misses
system.cpu.dcache.pwrStateResidencyTicks::UNDEFINED 957383449500                       # Cumulative time (in ticks) in various power states
system.cpu.dcache.replacements                8292154                       # number of replacements
system.cpu.dcache.tags.age_task_id_blocks_1024::0            4                       # Occupied blocks per task id
system.cpu.dcache.tags.age_task_id_blocks_1024::1            4                       # Occupied blocks per task id
system.cpu.dcache.tags.age_task_id_blocks_1024::2           55                       # Occupied blocks per task id
system.cpu.dcache.tags.age_task_id_blocks_1024::3          392                       # Occupied blocks per task id
system.cpu.dcache.tags.age_task_id_blocks_1024::4         3641                       # Occupied blocks per task id
system.cpu.dcache.tags.avg_refs             10.263582                       # Average number of references to valid blocks.
system.cpu.dcache.tags.data_accesses        178594728                       # Number of data accesses
system.cpu.dcache.tags.occ_blocks::.cpu.data  4077.196747                       # Average occupied blocks per requestor
system.cpu.dcache.tags.occ_percent::.cpu.data     0.995409                       # Average percentage of cache occupancy
system.cpu.dcache.tags.occ_percent::total     0.995409                       # Average percentage of cache occupancy
system.cpu.dcache.tags.occ_task_id_blocks::1024         4096                       # Occupied blocks per task id
system.cpu.dcache.tags.occ_task_id_percent::1024            1                       # Percentage of cache occupancy per task id
system.cpu.dcache.tags.pwrStateResidencyTicks::UNDEFINED 957383449500                       # Cumulative time (in ticks) in various power states
system.cpu.dcache.tags.sampled_refs           8296250                       # Sample count of references to valid blocks.
system.cpu.dcache.tags.tag_accesses         178594728                       # Number of tag accesses
system.cpu.dcache.tags.tagsinuse          4077.196747                       # Cycle average of tags in use
system.cpu.dcache.tags.total_refs            85149239                       # Total number of references to valid blocks.
system.cpu.dcache.tags.warmup_cycle            181500                       # Cycle when the warmup percentage was hit.
system.cpu.dcache.writebacks::.writebacks      8291235                       # number of writebacks
system.cpu.dcache.writebacks::total           8291235                       # number of writebacks
system.cpu.dtb.pwrStateResidencyTicks::UNDEFINED 957383449500                       # Cumulative time (in ticks) in various power states
system.cpu.dtb.rdAccesses                    14664116                       # TLB accesses on read requests
system.cpu.dtb.rdMisses                         12989                       # TLB misses on read requests
system.cpu.dtb.walker.pwrStateResidencyTicks::UNDEFINED 957383449500                       # Cumulative time (in ticks) in various power states
system.cpu.dtb.wrAccesses                    70485123                       # TLB accesses on write requests
system.cpu.dtb.wrMisses                        130894                       # TLB misses on write requests
system.cpu.dtb_walker_cache.avg_blocked_cycles::no_mshrs          nan                       # average number of cycles each access was blocked
system.cpu.dtb_walker_cache.avg_blocked_cycles::no_targets          nan                       # average number of cycles each access was blocked
system.cpu.dtb_walker_cache.blocked::no_mshrs            0                       # number of cycles access was blocked
system.cpu.dtb_walker_cache.blocked::no_targets            0                       # number of cycles access was blocked
system.cpu.dtb_walker_cache.blocked_cycles::no_mshrs            0                       # number of cycles access was blocked
system.cpu.dtb_walker_cache.blocked_cycles::no_targets            0                       # number of cycles access was blocked
system.cpu.dtb_walker_cache.pwrStateResidencyTicks::UNDEFINED 957383449500                       # Cumulative time (in ticks) in various power states
system.cpu.dtb_walker_cache.replacements            0                       # number of replacements
system.cpu.dtb_walker_cache.tags.avg_refs          nan                       # Average number of references to valid blocks.
system.cpu.dtb_walker_cache.tags.data_accesses            0                       # Number of data accesses
system.cpu.dtb_walker_cache.tags.pwrStateResidencyTicks::UNDEFINED 957383449500                       # Cumulative time (in ticks) in various power states
system.cpu.dtb_walker_cache.tags.sampled_refs            0                       # Sample count of references to valid blocks.
system.cpu.dtb_walker_cache.tags.tag_accesses            0                       # Number of tag accesses
system.cpu.dtb_walker_cache.tags.tagsinuse            0                       # Cycle average of tags in use
system.cpu.dtb_walker_cache.tags.total_refs            0                       # Total number of references to valid blocks.
system.cpu.dtb_walker_cache.tags.warmup_cycle            0                       # Cycle when the warmup percentage was hit.
system.cpu.icache.ReadReq_accesses::.cpu.inst    139152120                       # number of ReadReq accesses(hits+misses)
system.cpu.icache.ReadReq_accesses::total    139152120                       # number of ReadReq accesses(hits+misses)
system.cpu.icache.ReadReq_avg_miss_latency::.cpu.inst 85398.583828                       # average ReadReq miss latency
system.cpu.icache.ReadReq_avg_miss_latency::total 85398.583828                       # average ReadReq miss latency
system.cpu.icache.ReadReq_avg_mshr_miss_latency::.cpu.inst 84398.583828                       # average ReadReq mshr miss latency
system.cpu.icache.ReadReq_avg_mshr_miss_latency::total 84398.583828                       # average ReadReq mshr miss latency
system.cpu.icache.ReadReq_hits::.cpu.inst    139149931                       # number of ReadReq hits
system.cpu.icache.ReadReq_hits::total       139149931                       # number of ReadReq hits
system.cpu.icache.ReadReq_miss_latency::.cpu.inst    186937500                       # number of ReadReq miss cycles
system.cpu.icache.ReadReq_miss_latency::total    186937500                       # number of ReadReq miss cycles
system.cpu.icache.ReadReq_miss_rate::.cpu.inst     0.000016                       # miss rate for ReadReq accesses
system.cpu.icache.ReadReq_miss_rate::total     0.000016                       # miss rate for ReadReq accesses
system.cpu.icache.ReadReq_misses::.cpu.inst         2189                       # number of ReadReq misses
system.cpu.icache.ReadReq_misses::total          2189                       # number of ReadReq misses
system.cpu.icache.ReadReq_mshr_miss_latency::.cpu.inst    184748500                       # number of ReadReq MSHR miss cycles
system.cpu.icache.ReadReq_mshr_miss_latency::total    184748500                       # number of ReadReq MSHR miss cycles
system.cpu.icache.ReadReq_mshr_miss_rate::.cpu.inst     0.000016                       # mshr miss rate for ReadReq accesses
system.cpu.icache.ReadReq_mshr_miss_rate::total     0.000016                       # mshr miss rate for ReadReq accesses
system.cpu.icache.ReadReq_mshr_misses::.cpu.inst         2189                       # number of ReadReq MSHR misses
system.cpu.icache.ReadReq_mshr_misses::total         2189                       # number of ReadReq MSHR misses
system.cpu.icache.avg_blocked_cycles::no_mshrs          nan                       # average number of cycles each access was blocked
system.cpu.icache.avg_blocked_cycles::no_targets          nan                       # average number of cycles each access was blocked
system.cpu.icache.blocked::no_mshrs                 0                       # number of cycles access was blocked
system.cpu.icache.blocked::no_targets               0                       # number of cycles access was blocked
system.cpu.icache.blocked_cycles::no_mshrs            0                       # number of cycles access was blocked
system.cpu.icache.blocked_cycles::no_targets            0                       # number of cycles access was blocked
system.cpu.icache.demand_accesses::.cpu.inst    139152120                       # number of demand (read+write) accesses
system.cpu.icache.demand_accesses::total    139152120                       # number of demand (read+write) accesses
system.cpu.icache.demand_avg_miss_latency::.cpu.inst 85398.583828                       # average overall miss latency
system.cpu.icache.demand_avg_miss_latency::total 85398.583828                       # average overall miss latency
system.cpu.icache.demand_avg_mshr_miss_latency::.cpu.inst 84398.583828                       # average overall mshr miss latency
system.cpu.icache.demand_avg_mshr_miss_latency::total 84398.583828                       # average overall mshr miss latency
system.cpu.icache.demand_hits::.cpu.inst    139149931                       # number of demand (read+write) hits
system.cpu.icache.demand_hits::total        139149931                       # number of demand (read+write) hits
system.cpu.icache.demand_miss_latency::.cpu.inst    186937500                       # number of demand (read+write) miss cycles
system.cpu.icache.demand_miss_latency::total    186937500                       # number of demand (read+write) miss cycles
system.cpu.icache.demand_miss_rate::.cpu.inst     0.000016                       # miss rate for demand accesses
system.cpu.icache.demand_miss_rate::total     0.000016                       # miss rate for demand accesses
system.cpu.icache.demand_misses::.cpu.inst         2189                       # number of demand (read+write) misses
system.cpu.icache.demand_misses::total           2189                       # number of demand (read+write) misses
system.cpu.icache.demand_mshr_miss_latency::.cpu.inst    184748500                       # number of demand (read+write) MSHR miss cycles
system.cpu.icache.demand_mshr_miss_latency::total    184748500                       # number of demand (read+write) MSHR miss cycles
system.cpu.icache.demand_mshr_miss_rate::.cpu.inst     0.000016                       # mshr miss rate for demand accesses
system.cpu.icache.demand_mshr_miss_rate::total     0.000016                       # mshr miss rate for demand accesses
system.cpu.icache.demand_mshr_misses::.cpu.inst         2189                       # number of demand (read+write) MSHR misses
system.cpu.icache.demand_mshr_misses::total         2189                       # number of demand (read+write) MSHR misses
system.cpu.icache.overall_accesses::.cpu.inst    139152120                       # number of overall (read+write) accesses
system.cpu.icache.overall_accesses::total    139152120                       # number of overall (read+write) accesses
system.cpu.icache.overall_avg_miss_latency::.cpu.inst 85398.583828                       # average overall miss latency
system.cpu.icache.overall_avg_miss_latency::total 85398.583828                       # average overall miss latency
system.cpu.icache.overall_avg_mshr_miss_latency::.cpu.inst 84398.583828                       # average overall mshr miss latency
system.cpu.icache.overall_avg_mshr_miss_latency::total 84398.583828                       # average overall mshr miss latency
system.cpu.icache.overall_hits::.cpu.inst    139149931                       # number of overall hits
system.cpu.icache.overall_hits::total       139149931                       # number of overall hits
system.cpu.icache.overall_miss_latency::.cpu.inst    186937500                       # number of overall miss cycles
system.cpu.icache.overall_miss_latency::total    186937500                       # number of overall miss cycles
system.cpu.icache.overall_miss_rate::.cpu.inst     0.000016                       # miss rate for overall accesses
system.cpu.icache.overall_miss_rate::total     0.000016                       # miss rate for overall accesses
system.cpu.icache.overall_misses::.cpu.inst         2189                       # number of overall misses
system.cpu.icache.overall_misses::total          2189                       # number of overall misses
system.cpu.icache.overall_mshr_miss_latency::.cpu.inst    184748500                       # number of overall MSHR miss cycles
system.cpu.icache.overall_mshr_miss_latency::total    184748500                       # number of overall MSHR miss cycles
system.cpu.icache.overall_mshr_miss_rate::.cpu.inst     0.000016                       # mshr miss rate for overall accesses
system.cpu.icache.overall_mshr_miss_rate::total     0.000016                       # mshr miss rate for overall accesses
system.cpu.icache.overall_mshr_misses::.cpu.inst         2189                       # number of overall MSHR misses
system.cpu.icache.overall_mshr_misses::total         2189                       # number of overall MSHR misses
system.cpu.icache.pwrStateResidencyTicks::UNDEFINED 957383449500                       # Cumulative time (in ticks) in various power states
system.cpu.icache.replacements                    789                       # number of replacements
system.cpu.icache.tags.age_task_id_blocks_1024::3            1                       # Occupied blocks per task id
system.cpu.icache.tags.age_task_id_blocks_1024::4         1399                       # Occupied blocks per task id
system.cpu.icache.tags.avg_refs          63568.807675                       # Average number of references to valid blocks.
system.cpu.icache.tags.data_accesses        278306429                       # Number of data accesses
system.cpu.icache.tags.occ_blocks::.cpu.inst   618.706315                       # Average occupied blocks per requestor
system.cpu.icache.tags.occ_percent::.cpu.inst     0.302103                       # Average percentage of cache occupancy
system.cpu.icache.tags.occ_percent::total     0.302103                       # Average percentage of cache occupancy
system.cpu.icache.tags.occ_task_id_blocks::1024         1400                       # Occupied blocks per task id
system.cpu.icache.tags.occ_task_id_percent::1024     0.683594                       # Percentage of cache occupancy per task id
system.cpu.icache.tags.pwrStateResidencyTicks::UNDEFINED 957383449500                       # Cumulative time (in ticks) in various power states
system.cpu.icache.tags.sampled_refs              2189                       # Sample count of references to valid blocks.
system.cpu.icache.tags.tag_accesses         278306429                       # Number of tag accesses
system.cpu.icache.tags.tagsinuse           618.706315                       # Cycle average of tags in use
system.cpu.icache.tags.total_refs           139152120                       # Total number of references to valid blocks.
system.cpu.icache.tags.warmup_cycle             87500                       # Cycle when the warmup percentage was hit.
system.cpu.icache.writebacks::.writebacks          789                       # number of writebacks
system.cpu.icache.writebacks::total               789                       # number of writebacks
system.cpu.idle_fraction                            0                       # Percentage of idle cycles
system.cpu.interrupts.pwrStateResidencyTicks::UNDEFINED 957383449500                       # Cumulative time (in ticks) in various power states
system.cpu.itb.pwrStateResidencyTicks::UNDEFINED 957383449500                       # Cumulative time (in ticks) in various power states
system.cpu.itb.rdAccesses                           0                       # TLB accesses on read requests
system.cpu.itb.rdMisses                             0                       # TLB misses on read requests
system.cpu.itb.walker.pwrStateResidencyTicks::UNDEFINED 957383449500                       # Cumulative time (in ticks) in various power states
system.cpu.itb.wrAccesses                   139152120                       # TLB accesses on write requests
system.cpu.itb.wrMisses                            75                       # TLB misses on write requests
system.cpu.itb_walker_cache.avg_blocked_cycles::no_mshrs          nan                       # average number of cycles each access was blocked
system.cpu.itb_walker_cache.avg_blocked_cycles::no_targets          nan                       # average number of cycles each access was blocked
system.cpu.itb_walker_cache.blocked::no_mshrs            0                       # number of cycles access was blocked
system.cpu.itb_walker_cache.blocked::no_targets            0                       # number of cycles access was blocked
system.cpu.itb_walker_cache.blocked_cycles::no_mshrs            0                       # number of cycles access was blocked
system.cpu.itb_walker_cache.blocked_cycles::no_targets            0                       # number of cycles access was blocked
system.cpu.itb_walker_cache.pwrStateResidencyTicks::UNDEFINED 957383449500                       # Cumulative time (in ticks) in various power states
system.cpu.itb_walker_cache.replacements            0                       # number of replacements
system.cpu.itb_walker_cache.tags.avg_refs          nan                       # Average number of references to valid blocks.
system.cpu.itb_walker_cache.tags.data_accesses            0                       # Number of data accesses
system.cpu.itb_walker_cache.tags.pwrStateResidencyTicks::UNDEFINED 957383449500                       # Cumulative time (in ticks) in various power states
system.cpu.itb_walker_cache.tags.sampled_refs            0                       # Sample count of references to valid blocks.
system.cpu.itb_walker_cache.tags.tag_accesses            0                       # Number of tag accesses
system.cpu.itb_walker_cache.tags.tagsinuse            0                       # Cycle average of tags in use
system.cpu.itb_walker_cache.tags.total_refs            0                       # Total number of references to valid blocks.
system.cpu.itb_walker_cache.tags.warmup_cycle            0                       # Cycle when the warmup percentage was hit.
system.cpu.not_idle_fraction                        1                       # Percentage of non-idle cycles
system.cpu.numCycles                       1914766899                       # number of cpu cycles simulated
system.cpu.numWorkItemsCompleted                    0                       # number of work items this cpu completed
system.cpu.numWorkItemsStarted                      0                       # number of work items this cpu started
system.cpu.num_busy_cycles                 1914766899                       # Number of busy cycles
system.cpu.num_cc_register_reads             66390676                       # number of times the CC registers were read
system.cpu.num_cc_register_writes            58331008                       # number of times the CC registers were written
system.cpu.num_conditional_control_insts     12357318                       # number of instructions that are conditional controls
system.cpu.num_fp_alu_accesses               66079645                       # Number of float alu accesses
system.cpu.num_fp_insts                      66079645                       # number of float instructions
system.cpu.num_fp_register_reads             66107541                       # number of times the floating registers were read
system.cpu.num_fp_register_writes               34696                       # number of times the floating registers were written
system.cpu.num_func_calls                      481409                       # number of times a function call or return occured
system.cpu.num_idle_cycles                          0                       # Number of idle cycles
system.cpu.num_int_alu_accesses             180945640                       # Number of integer alu accesses
system.cpu.num_int_insts                    180945640                       # number of integer instructions
system.cpu.num_int_register_reads           393189365                       # number of times the integer registers were read
system.cpu.num_int_register_writes           97341166                       # number of times the integer registers were written
system.cpu.num_load_insts                    14663800                       # Number of load instructions
system.cpu.num_mem_refs                      85148913                       # number of memory refs
system.cpu.num_store_insts                   70485113                       # Number of store instructions
system.cpu.num_vec_alu_accesses                     0                       # Number of vector alu accesses
system.cpu.num_vec_insts                            0                       # number of vector instructions
system.cpu.num_vec_register_reads                   0                       # number of times the vector registers were read
system.cpu.num_vec_register_writes                  0                       # number of times the vector registers were written
system.cpu.op_class::No_OpClass                 17650      0.01%      0.01% # Class of executed instruction
system.cpu.op_class::IntAlu                  95763297     52.87%     52.88% # Class of executed instruction
system.cpu.op_class::IntMult                    94292      0.05%     52.93% # Class of executed instruction
system.cpu.op_class::IntDiv                     79926      0.04%     52.97% # Class of executed instruction
system.cpu.op_class::FloatAdd                    2214      0.00%     52.98% # Class of executed instruction
system.cpu.op_class::FloatCmp                       0      0.00%     52.98% # Class of executed instruction
system.cpu.op_class::FloatCvt                       0      0.00%     52.98% # Class of executed instruction
system.cpu.op_class::FloatMult                      0      0.00%     52.98% # Class of executed instruction
system.cpu.op_class::FloatMultAcc                   0      0.00%     52.98% # Class of executed instruction
system.cpu.op_class::FloatDiv                       0      0.00%     52.98% # Class of executed instruction
system.cpu.op_class::FloatMisc                      0      0.00%     52.98% # Class of executed instruction
system.cpu.op_class::FloatSqrt                      0      0.00%     52.98% # Class of executed instruction
system.cpu.op_class::SimdAdd                        0      0.00%     52.98% # Class of executed instruction
system.cpu.op_class::SimdAddAcc                     0      0.00%     52.98% # Class of executed instruction
system.cpu.op_class::SimdAlu                     4490      0.00%     52.98% # Class of executed instruction
system.cpu.op_class::SimdCmp                       12      0.00%     52.98% # Class of executed instruction
system.cpu.op_class::SimdCvt                     5116      0.00%     52.98% # Class of executed instruction
system.cpu.op_class::SimdMisc                   18029      0.01%     52.99% # Class of executed instruction
system.cpu.op_class::SimdMult                       0      0.00%     52.99% # Class of executed instruction
system.cpu.op_class::SimdMultAcc                    0      0.00%     52.99% # Class of executed instruction
system.cpu.op_class::SimdShift                      0      0.00%     52.99% # Class of executed instruction
system.cpu.op_class::SimdShiftAcc                   0      0.00%     52.99% # Class of executed instruction
system.cpu.op_class::SimdDiv                        0      0.00%     52.99% # Class of executed instruction
system.cpu.op_class::SimdSqrt                       0      0.00%     52.99% # Class of executed instruction
system.cpu.op_class::SimdFloatAdd                   0      0.00%     52.99% # Class of executed instruction
system.cpu.op_class::SimdFloatAlu                   0      0.00%     52.99% # Class of executed instruction
system.cpu.op_class::SimdFloatCmp                   0      0.00%     52.99% # Class of executed instruction
system.cpu.op_class::SimdFloatCvt                  29      0.00%     52.99% # Class of executed instruction
system.cpu.op_class::SimdFloatDiv                   5      0.00%     52.99% # Class of executed instruction
system.cpu.op_class::SimdFloatMisc                  0      0.00%     52.99% # Class of executed instruction
system.cpu.op_class::SimdFloatMult                  5      0.00%     52.99% # Class of executed instruction
system.cpu.op_class::SimdFloatMultAcc               0      0.00%     52.99% # Class of executed instruction
system.cpu.op_class::SimdFloatSqrt                  0      0.00%     52.99% # Class of executed instruction
system.cpu.op_class::SimdReduceAdd                  0      0.00%     52.99% # Class of executed instruction
system.cpu.op_class::SimdReduceAlu                  0      0.00%     52.99% # Class of executed instruction
system.cpu.op_class::SimdReduceCmp                  0      0.00%     52.99% # Class of executed instruction
system.cpu.op_class::SimdFloatReduceAdd             0      0.00%     52.99% # Class of executed instruction
system.cpu.op_class::SimdFloatReduceCmp             0      0.00%     52.99% # Class of executed instruction
system.cpu.op_class::SimdAes                        0      0.00%     52.99% # Class of executed instruction
system.cpu.op_class::SimdAesMix                     0      0.00%     52.99% # Class of executed instruction
system.cpu.op_class::SimdSha1Hash                   0      0.00%     52.99% # Class of executed instruction
system.cpu.op_class::SimdSha1Hash2                  0      0.00%     52.99% # Class of executed instruction
system.cpu.op_class::SimdSha256Hash                 0      0.00%     52.99% # Class of executed instruction
system.cpu.op_class::SimdSha256Hash2                0      0.00%     52.99% # Class of executed instruction
system.cpu.op_class::SimdShaSigma2                  0      0.00%     52.99% # Class of executed instruction
system.cpu.op_class::SimdShaSigma3                  0      0.00%     52.99% # Class of executed instruction
system.cpu.op_class::SimdPredAlu                    0      0.00%     52.99% # Class of executed instruction
system.cpu.op_class::MemRead                 14661131      8.09%     61.09% # Class of executed instruction
system.cpu.op_class::MemWrite                 4442793      2.45%     63.54% # Class of executed instruction
system.cpu.op_class::FloatMemRead                2669      0.00%     63.54% # Class of executed instruction
system.cpu.op_class::FloatMemWrite           66042320     36.46%    100.00% # Class of executed instruction
system.cpu.op_class::IprAccess                      0      0.00%    100.00% # Class of executed instruction
system.cpu.op_class::InstPrefetch                   0      0.00%    100.00% # Class of executed instruction
system.cpu.op_class::total                  181133978                       # Class of executed instruction
system.cpu.pwrStateResidencyTicks::ON    957383449500                       # Cumulative time (in ticks) in various power states
system.cpu.workload.numSyscalls                   146                       # Number of system calls
system.cpu_clk_domain.clock                       500                       # Clock period in ticks
system.cpu_voltage_domain.voltage                   1                       # Voltage in Volts
system.l2.CleanEvict_mshr_miss_rate::.writebacks          inf                       # mshr miss rate for CleanEvict accesses
system.l2.CleanEvict_mshr_miss_rate::total          inf                       # mshr miss rate for CleanEvict accesses
system.l2.CleanEvict_mshr_misses::.writebacks          272                       # number of CleanEvict MSHR misses
system.l2.CleanEvict_mshr_misses::total           272                       # number of CleanEvict MSHR misses
system.l2.ReadCleanReq_accesses::.cpu.inst         2189                       # number of ReadCleanReq accesses(hits+misses)
system.l2.ReadCleanReq_accesses::total           2189                       # number of ReadCleanReq accesses(hits+misses)
system.l2.ReadCleanReq_avg_miss_latency::.cpu.inst 110669.405815                       # average ReadCleanReq miss latency
system.l2.ReadCleanReq_avg_miss_latency::total 110669.405815                       # average ReadCleanReq miss latency
system.l2.ReadCleanReq_avg_mshr_miss_latency::.cpu.inst 100669.405815                       # average ReadCleanReq mshr miss latency
system.l2.ReadCleanReq_avg_mshr_miss_latency::total 100669.405815                       # average ReadCleanReq mshr miss latency
system.l2.ReadCleanReq_hits::.cpu.inst            607                       # number of ReadCleanReq hits
system.l2.ReadCleanReq_hits::total                607                       # number of ReadCleanReq hits
system.l2.ReadCleanReq_miss_latency::.cpu.inst    175079000                       # number of ReadCleanReq miss cycles
system.l2.ReadCleanReq_miss_latency::total    175079000                       # number of ReadCleanReq miss cycles
system.l2.ReadCleanReq_miss_rate::.cpu.inst     0.722704                       # miss rate for ReadCleanReq accesses
system.l2.ReadCleanReq_miss_rate::total      0.722704                       # miss rate for ReadCleanReq accesses
system.l2.ReadCleanReq_misses::.cpu.inst         1582                       # number of ReadCleanReq misses
system.l2.ReadCleanReq_misses::total             1582                       # number of ReadCleanReq misses
system.l2.ReadCleanReq_mshr_miss_latency::.cpu.inst    159259000                       # number of ReadCleanReq MSHR miss cycles
system.l2.ReadCleanReq_mshr_miss_latency::total    159259000                       # number of ReadCleanReq MSHR miss cycles
system.l2.ReadCleanReq_mshr_miss_rate::.cpu.inst     0.722704                       # mshr miss rate for ReadCleanReq accesses
system.l2.ReadCleanReq_mshr_miss_rate::total     0.722704                       # mshr miss rate for ReadCleanReq accesses
system.l2.ReadCleanReq_mshr_misses::.cpu.inst         1582                       # number of ReadCleanReq MSHR misses
system.l2.ReadCleanReq_mshr_misses::total         1582                       # number of ReadCleanReq MSHR misses
system.l2.ReadExReq_accesses::.cpu.data       8290036                       # number of ReadExReq accesses(hits+misses)
system.l2.ReadExReq_accesses::total           8290036                       # number of ReadExReq accesses(hits+misses)
system.l2.ReadExReq_avg_miss_latency::.cpu.data 86691.775644                       # average ReadExReq miss latency
system.l2.ReadExReq_avg_miss_latency::total 86691.775644                       # average ReadExReq miss latency
system.l2.ReadExReq_avg_mshr_miss_latency::.cpu.data 76691.775644                       # average ReadExReq mshr miss latency
system.l2.ReadExReq_avg_mshr_miss_latency::total 76691.775644                       # average ReadExReq mshr miss latency
system.l2.ReadExReq_hits::.cpu.data               305                       # number of ReadExReq hits
system.l2.ReadExReq_hits::total                   305                       # number of ReadExReq hits
system.l2.ReadExReq_miss_latency::.cpu.data 718651500000                       # number of ReadExReq miss cycles
system.l2.ReadExReq_miss_latency::total  718651500000                       # number of ReadExReq miss cycles
system.l2.ReadExReq_miss_rate::.cpu.data     0.999963                       # miss rate for ReadExReq accesses
system.l2.ReadExReq_miss_rate::total         0.999963                       # miss rate for ReadExReq accesses
system.l2.ReadExReq_misses::.cpu.data         8289731                       # number of ReadExReq misses
system.l2.ReadExReq_misses::total             8289731                       # number of ReadExReq misses
system.l2.ReadExReq_mshr_miss_latency::.cpu.data 635754190000                       # number of ReadExReq MSHR miss cycles
system.l2.ReadExReq_mshr_miss_latency::total 635754190000                       # number of ReadExReq MSHR miss cycles
system.l2.ReadExReq_mshr_miss_rate::.cpu.data     0.999963                       # mshr miss rate for ReadExReq accesses
system.l2.ReadExReq_mshr_miss_rate::total     0.999963                       # mshr miss rate for ReadExReq accesses
system.l2.ReadExReq_mshr_misses::.cpu.data      8289731                       # number of ReadExReq MSHR misses
system.l2.ReadExReq_mshr_misses::total        8289731                       # number of ReadExReq MSHR misses
system.l2.ReadSharedReq_accesses::.cpu.data         6214                       # number of ReadSharedReq accesses(hits+misses)
system.l2.ReadSharedReq_accesses::total          6214                       # number of ReadSharedReq accesses(hits+misses)
system.l2.ReadSharedReq_avg_miss_latency::.cpu.data 318803.272857                       # average ReadSharedReq miss latency
system.l2.ReadSharedReq_avg_miss_latency::total 318803.272857                       # average ReadSharedReq miss latency
system.l2.ReadSharedReq_avg_mshr_miss_latency::.cpu.data 308803.272857                       # average ReadSharedReq mshr miss latency
system.l2.ReadSharedReq_avg_mshr_miss_latency::total 308803.272857                       # average ReadSharedReq mshr miss latency
system.l2.ReadSharedReq_hits::.cpu.data           592                       # number of ReadSharedReq hits
system.l2.ReadSharedReq_hits::total               592                       # number of ReadSharedReq hits
system.l2.ReadSharedReq_miss_latency::.cpu.data   1792312000                       # number of ReadSharedReq miss cycles
system.l2.ReadSharedReq_miss_latency::total   1792312000                       # number of ReadSharedReq miss cycles
system.l2.ReadSharedReq_miss_rate::.cpu.data     0.904731                       # miss rate for ReadSharedReq accesses
system.l2.ReadSharedReq_miss_rate::total     0.904731                       # miss rate for ReadSharedReq accesses
system.l2.ReadSharedReq_misses::.cpu.data         5622                       # number of ReadSharedReq misses
system.l2.ReadSharedReq_misses::total            5622                       # number of ReadSharedReq misses
system.l2.ReadSharedReq_mshr_miss_latency::.cpu.data   1736092000                       # number of ReadSharedReq MSHR miss cycles
system.l2.ReadSharedReq_mshr_miss_latency::total   1736092000                       # number of ReadSharedReq MSHR miss cycles
system.l2.ReadSharedReq_mshr_miss_rate::.cpu.data     0.904731                       # mshr miss rate for ReadSharedReq accesses
system.l2.ReadSharedReq_mshr_miss_rate::total     0.904731                       # mshr miss rate for ReadSharedReq accesses
system.l2.ReadSharedReq_mshr_misses::.cpu.data         5622                       # number of ReadSharedReq MSHR misses
system.l2.ReadSharedReq_mshr_misses::total         5622                       # number of ReadSharedReq MSHR misses
system.l2.WritebackClean_accesses::.writebacks          789                       # number of WritebackClean accesses(hits+misses)
system.l2.WritebackClean_accesses::total          789                       # number of WritebackClean accesses(hits+misses)
system.l2.WritebackClean_hits::.writebacks          789                       # number of WritebackClean hits
system.l2.WritebackClean_hits::total              789                       # number of WritebackClean hits
system.l2.WritebackDirty_accesses::.writebacks      8291235                       # number of WritebackDirty accesses(hits+misses)
system.l2.WritebackDirty_accesses::total      8291235                       # number of WritebackDirty accesses(hits+misses)
system.l2.WritebackDirty_hits::.writebacks      8291235                       # number of WritebackDirty hits
system.l2.WritebackDirty_hits::total          8291235                       # number of WritebackDirty hits
system.l2.avg_blocked_cycles::no_mshrs            nan                       # average number of cycles each access was blocked
system.l2.avg_blocked_cycles::no_targets          nan                       # average number of cycles each access was blocked
system.l2.blocked::no_mshrs                         0                       # number of cycles access was blocked
system.l2.blocked::no_targets                       0                       # number of cycles access was blocked
system.l2.blocked_cycles::no_mshrs                  0                       # number of cycles access was blocked
system.l2.blocked_cycles::no_targets                0                       # number of cycles access was blocked
system.l2.demand_accesses::.cpu.inst             2189                       # number of demand (read+write) accesses
system.l2.demand_accesses::.cpu.data          8296250                       # number of demand (read+write) accesses
system.l2.demand_accesses::total              8298439                       # number of demand (read+write) accesses
system.l2.demand_avg_miss_latency::.cpu.inst 110669.405815                       # average overall miss latency
system.l2.demand_avg_miss_latency::.cpu.data 86849.084301                       # average overall miss latency
system.l2.demand_avg_miss_latency::total 86853.626188                       # average overall miss latency
system.l2.demand_avg_mshr_miss_latency::.cpu.inst 100669.405815                       # average overall mshr miss latency
system.l2.demand_avg_mshr_miss_latency::.cpu.data 76849.084301                       # average overall mshr miss latency
system.l2.demand_avg_mshr_miss_latency::total 76853.626188                       # average overall mshr miss latency
system.l2.demand_hits::.cpu.inst                  607                       # number of demand (read+write) hits
system.l2.demand_hits::.cpu.data                  897                       # number of demand (read+write) hits
system.l2.demand_hits::total                     1504                       # number of demand (read+write) hits
system.l2.demand_miss_latency::.cpu.inst    175079000                       # number of demand (read+write) miss cycles
system.l2.demand_miss_latency::.cpu.data 720443812000                       # number of demand (read+write) miss cycles
system.l2.demand_miss_latency::total     720618891000                       # number of demand (read+write) miss cycles
system.l2.demand_miss_rate::.cpu.inst        0.722704                       # miss rate for demand accesses
system.l2.demand_miss_rate::.cpu.data        0.999892                       # miss rate for demand accesses
system.l2.demand_miss_rate::total            0.999819                       # miss rate for demand accesses
system.l2.demand_misses::.cpu.inst               1582                       # number of demand (read+write) misses
system.l2.demand_misses::.cpu.data            8295353                       # number of demand (read+write) misses
system.l2.demand_misses::total                8296935                       # number of demand (read+write) misses
system.l2.demand_mshr_miss_latency::.cpu.inst    159259000                       # number of demand (read+write) MSHR miss cycles
system.l2.demand_mshr_miss_latency::.cpu.data 637490282000                       # number of demand (read+write) MSHR miss cycles
system.l2.demand_mshr_miss_latency::total 637649541000                       # number of demand (read+write) MSHR miss cycles
system.l2.demand_mshr_miss_rate::.cpu.inst     0.722704                       # mshr miss rate for demand accesses
system.l2.demand_mshr_miss_rate::.cpu.data     0.999892                       # mshr miss rate for demand accesses
system.l2.demand_mshr_miss_rate::total       0.999819                       # mshr miss rate for demand accesses
system.l2.demand_mshr_misses::.cpu.inst          1582                       # number of demand (read+write) MSHR misses
system.l2.demand_mshr_misses::.cpu.data       8295353                       # number of demand (read+write) MSHR misses
system.l2.demand_mshr_misses::total           8296935                       # number of demand (read+write) MSHR misses
system.l2.overall_accesses::.cpu.inst            2189                       # number of overall (read+write) accesses
system.l2.overall_accesses::.cpu.data         8296250                       # number of overall (read+write) accesses
system.l2.overall_accesses::total             8298439                       # number of overall (read+write) accesses
system.l2.overall_avg_miss_latency::.cpu.inst 110669.405815                       # average overall miss latency
system.l2.overall_avg_miss_latency::.cpu.data 86849.084301                       # average overall miss latency
system.l2.overall_avg_miss_latency::total 86853.626188                       # average overall miss latency
system.l2.overall_avg_mshr_miss_latency::.cpu.inst 100669.405815                       # average overall mshr miss latency
system.l2.overall_avg_mshr_miss_latency::.cpu.data 76849.084301                       # average overall mshr miss latency
system.l2.overall_avg_mshr_miss_latency::total 76853.626188                       # average overall mshr miss latency
system.l2.overall_hits::.cpu.inst                 607                       # number of overall hits
system.l2.overall_hits::.cpu.data                 897                       # number of overall hits
system.l2.overall_hits::total                    1504                       # number of overall hits
system.l2.overall_miss_latency::.cpu.inst    175079000                       # number of overall miss cycles
system.l2.overall_miss_latency::.cpu.data 720443812000                       # number of overall miss cycles
system.l2.overall_miss_latency::total    720618891000                       # number of overall miss cycles
system.l2.overall_miss_rate::.cpu.inst       0.722704                       # miss rate for overall accesses
system.l2.overall_miss_rate::.cpu.data       0.999892                       # miss rate for overall accesses
system.l2.overall_miss_rate::total           0.999819                       # miss rate for overall accesses
system.l2.overall_misses::.cpu.inst              1582                       # number of overall misses
system.l2.overall_misses::.cpu.data           8295353                       # number of overall misses
system.l2.overall_misses::total               8296935                       # number of overall misses
system.l2.overall_mshr_miss_latency::.cpu.inst    159259000                       # number of overall MSHR miss cycles
system.l2.overall_mshr_miss_latency::.cpu.data 637490282000                       # number of overall MSHR miss cycles
system.l2.overall_mshr_miss_latency::total 637649541000                       # number of overall MSHR miss cycles
system.l2.overall_mshr_miss_rate::.cpu.inst     0.722704                       # mshr miss rate for overall accesses
system.l2.overall_mshr_miss_rate::.cpu.data     0.999892                       # mshr miss rate for overall accesses
system.l2.overall_mshr_miss_rate::total      0.999819                       # mshr miss rate for overall accesses
system.l2.overall_mshr_misses::.cpu.inst         1582                       # number of overall MSHR misses
system.l2.overall_mshr_misses::.cpu.data      8295353                       # number of overall MSHR misses
system.l2.overall_mshr_misses::total          8296935                       # number of overall MSHR misses
system.l2.pwrStateResidencyTicks::UNDEFINED 957383449500                       # Cumulative time (in ticks) in various power states
system.l2.replacements                        8288242                       # number of replacements
system.l2.tags.age_task_id_blocks_1024::0            5                       # Occupied blocks per task id
system.l2.tags.age_task_id_blocks_1024::1            4                       # Occupied blocks per task id
system.l2.tags.age_task_id_blocks_1024::2           51                       # Occupied blocks per task id
system.l2.tags.age_task_id_blocks_1024::3          483                       # Occupied blocks per task id
system.l2.tags.age_task_id_blocks_1024::4        15841                       # Occupied blocks per task id
system.l2.tags.avg_refs                      1.997815                       # Average number of references to valid blocks.
system.l2.tags.data_accesses                 24896007                       # Number of data accesses
system.l2.tags.occ_blocks::.writebacks     123.072143                       # Average occupied blocks per requestor
system.l2.tags.occ_blocks::.cpu.inst        43.889306                       # Average occupied blocks per requestor
system.l2.tags.occ_blocks::.cpu.data     16086.730225                       # Average occupied blocks per requestor
system.l2.tags.occ_percent::.writebacks      0.007512                       # Average percentage of cache occupancy
system.l2.tags.occ_percent::.cpu.inst        0.002679                       # Average percentage of cache occupancy
system.l2.tags.occ_percent::.cpu.data        0.981856                       # Average percentage of cache occupancy
system.l2.tags.occ_percent::total            0.992047                       # Average percentage of cache occupancy
system.l2.tags.occ_task_id_blocks::1024         16384                       # Occupied blocks per task id
system.l2.tags.occ_task_id_percent::1024            1                       # Percentage of cache occupancy per task id
system.l2.tags.pwrStateResidencyTicks::UNDEFINED 957383449500                       # Cumulative time (in ticks) in various power states
system.l2.tags.sampled_refs                   8304626                       # Sample count of references to valid blocks.
system.l2.tags.tag_accesses                  24896007                       # Number of tag accesses
system.l2.tags.tagsinuse                 16253.691674                       # Cycle average of tags in use
system.l2.tags.total_refs                    16591109                       # Total number of references to valid blocks.
system.l2.tags.warmup_cycle                     77000                       # Cycle when the warmup percentage was hit.
system.l2.writebacks::.writebacks             8277792                       # number of writebacks
system.l2.writebacks::total                   8277792                       # number of writebacks
system.mem_ctrls.avgBusLat                    5000.00                       # Average bus latency per DRAM burst
system.mem_ctrls.avgGap                      57761.53                       # Average gap between requests
system.mem_ctrls.avgMemAccLat                36095.37                       # Average memory access latency per DRAM burst
system.mem_ctrls.avgPriority_.writebacks::samples   8277792.00                       # Average QoS priority value for accepted requests
system.mem_ctrls.avgPriority_.cpu.inst::samples      1582.00                       # Average QoS priority value for accepted requests
system.mem_ctrls.avgPriority_.cpu.data::samples   8295350.00                       # Average QoS priority value for accepted requests
system.mem_ctrls.avgQLat                     17345.37                       # Average queueing delay per DRAM burst
system.mem_ctrls.avgRdBW                       554.64                       # Average DRAM read bandwidth in MiByte/s
system.mem_ctrls.avgRdBWSys                    554.64                       # Average system read bandwidth in MiByte/s
system.mem_ctrls.avgRdQLen                       1.00                       # Average read queue length when enqueuing
system.mem_ctrls.avgWrBW                       553.36                       # Average achieved write bandwidth in MiByte/s
system.mem_ctrls.avgWrBWSys                    553.36                       # Average system write bandwidth in MiByte/s
system.mem_ctrls.avgWrQLen                      25.70                       # Average write queue length when enqueuing
system.mem_ctrls.busUtil                         8.66                       # Data bus utilization in percentage
system.mem_ctrls.busUtilRead                     4.33                       # Data bus utilization in percentage for reads
system.mem_ctrls.busUtilWrite                    4.32                       # Data bus utilization in percentage for writes
system.mem_ctrls.bw_inst_read::.cpu.inst       105755                       # Instruction read bandwidth from this memory (bytes/s)
system.mem_ctrls.bw_inst_read::total           105755                       # Instruction read bandwidth from this memory (bytes/s)
system.mem_ctrls.bw_read::.cpu.inst            105755                       # Total read bandwidth from this memory (bytes/s)
system.mem_ctrls.bw_read::.cpu.data         554534959                       # Total read bandwidth from this memory (bytes/s)
system.mem_ctrls.bw_read::total             554640714                       # Total read bandwidth from this memory (bytes/s)
system.mem_ctrls.bw_total::.writebacks      553361026                       # Total bandwidth to/from this memory (bytes/s)
system.mem_ctrls.bw_total::.cpu.inst           105755                       # Total bandwidth to/from this memory (bytes/s)
system.mem_ctrls.bw_total::.cpu.data        554534959                       # Total bandwidth to/from this memory (bytes/s)
system.mem_ctrls.bw_total::total           1108001740                       # Total bandwidth to/from this memory (bytes/s)
system.mem_ctrls.bw_write::.writebacks      553361026                       # Write bandwidth from this memory (bytes/s)
system.mem_ctrls.bw_write::total            553361026                       # Write bandwidth from this memory (bytes/s)
system.mem_ctrls.bytesPerActivate::samples      1276351                       # Bytes accessed per row activation
system.mem_ctrls.bytesPerActivate::mean    831.103745                       # Bytes accessed per row activation
system.mem_ctrls.bytesPerActivate::gmean   718.334409                       # Bytes accessed per row activation
system.mem_ctrls.bytesPerActivate::stdev   305.894950                       # Bytes accessed per row activation
system.mem_ctrls.bytesPerActivate::0-127        46764      3.66%      3.66% # Bytes accessed per row activation
system.mem_ctrls.bytesPerActivate::128-255        54223      4.25%      7.91% # Bytes accessed per row activation
system.mem_ctrls.bytesPerActivate::256-383        39852      3.12%     11.03% # Bytes accessed per row activation
system.mem_ctrls.bytesPerActivate::384-511        80632      6.32%     17.35% # Bytes accessed per row activation
system.mem_ctrls.bytesPerActivate::512-639       109045      8.54%     25.90% # Bytes accessed per row activation
system.mem_ctrls.bytesPerActivate::640-767        36680      2.87%     28.77% # Bytes accessed per row activation
system.mem_ctrls.bytesPerActivate::768-895        25890      2.03%     30.80% # Bytes accessed per row activation
system.mem_ctrls.bytesPerActivate::896-1023        53971      4.23%     35.03% # Bytes accessed per row activation
system.mem_ctrls.bytesPerActivate::1024-1151       829294     64.97%    100.00% # Bytes accessed per row activation
system.mem_ctrls.bytesPerActivate::total      1276351                       # Bytes accessed per row activation
system.mem_ctrls.bytesReadDRAM              531003648                       # Total number of bytes read from DRAM
system.mem_ctrls.bytesReadSys               531003840                       # Total read bytes from the system interface side
system.mem_ctrls.bytesReadWrQ                     192                       # Total number of bytes read from write queue
system.mem_ctrls.bytesWritten               529776704                       # Total number of bytes written to DRAM
system.mem_ctrls.bytesWrittenSys            529778688                       # Total written bytes from the system interface side
system.mem_ctrls.bytes_inst_read::.cpu.inst       101248                       # Number of instructions bytes read from this memory
system.mem_ctrls.bytes_inst_read::total        101248                       # Number of instructions bytes read from this memory
system.mem_ctrls.bytes_read::.cpu.inst         101248                       # Number of bytes read from this memory
system.mem_ctrls.bytes_read::.cpu.data      530902592                       # Number of bytes read from this memory
system.mem_ctrls.bytes_read::total          531003840                       # Number of bytes read from this memory
system.mem_ctrls.bytes_written::.writebacks    529778688                       # Number of bytes written to this memory
system.mem_ctrls.bytes_written::total       529778688                       # Number of bytes written to this memory
system.mem_ctrls.masterReadAccesses::.cpu.inst         1582                       # Per-master read serviced memory accesses
system.mem_ctrls.masterReadAccesses::.cpu.data      8295353                       # Per-master read serviced memory accesses
system.mem_ctrls.masterReadAvgLat::.cpu.inst     59837.55                       # Per-master read average memory access latency
system.mem_ctrls.masterReadAvgLat::.cpu.data     36090.83                       # Per-master read average memory access latency
system.mem_ctrls.masterReadBytes::.cpu.inst       101248                       # Per-master bytes read from memory
system.mem_ctrls.masterReadBytes::.cpu.data    530902400                       # Per-master bytes read from memory
system.mem_ctrls.masterReadRate::.cpu.inst 105754.909438718052                       # Per-master bytes read from memory rate (Bytes/sec)
system.mem_ctrls.masterReadRate::.cpu.data 554534758.541384220123                       # Per-master bytes read from memory rate (Bytes/sec)
system.mem_ctrls.masterReadTotalLat::.cpu.inst     94663000                       # Per-master read total memory access latency
system.mem_ctrls.masterReadTotalLat::.cpu.data 299386167092                       # Per-master read total memory access latency
system.mem_ctrls.masterWriteAccesses::.writebacks      8277792                       # Per-master write serviced memory accesses
system.mem_ctrls.masterWriteAvgLat::.writebacks   2824746.41                       # Per-master write average memory access latency
system.mem_ctrls.masterWriteBytes::.writebacks    529776704                       # Per-master bytes write to memory
system.mem_ctrls.masterWriteRate::.writebacks 553358953.799211263657                       # Per-master bytes write to memory rate (Bytes/sec)
system.mem_ctrls.masterWriteTotalLat::.writebacks 23382663201463                       # Per-master write total memory access latency
system.mem_ctrls.mergedWrBursts                     0                       # Number of DRAM write bursts merged with an existing one
system.mem_ctrls.neitherReadNorWriteReqs            0                       # Number of requests that are neither read nor write
system.mem_ctrls.numRdRetry                         0                       # Number of times read queue was full causing retry
system.mem_ctrls.numReadWriteTurnArounds       517090                       # Number of turnarounds from READ to WRITE
system.mem_ctrls.numStayReadState            24487518                       # Number of times bus staying in READ state
system.mem_ctrls.numStayWriteState            7769454                       # Number of times bus staying in WRITE state
system.mem_ctrls.numWrRetry                         0                       # Number of times write queue was full causing retry
system.mem_ctrls.numWriteReadTurnArounds       517090                       # Number of turnarounds from WRITE to READ
system.mem_ctrls.num_reads::.cpu.inst            1582                       # Number of read requests responded to by this memory
system.mem_ctrls.num_reads::.cpu.data         8295353                       # Number of read requests responded to by this memory
system.mem_ctrls.num_reads::total             8296935                       # Number of read requests responded to by this memory
system.mem_ctrls.num_writes::.writebacks      8277792                       # Number of write requests responded to by this memory
system.mem_ctrls.num_writes::total            8277792                       # Number of write requests responded to by this memory
system.mem_ctrls.pageHitRate                    92.30                       # Row buffer hit rate, read and write combined
system.mem_ctrls.peakBW                      12800.00                       # Theoretical peak bandwidth in MiByte/s
system.mem_ctrls.perBankRdBursts::0            518483                       # Per bank write bursts
system.mem_ctrls.perBankRdBursts::1            518430                       # Per bank write bursts
system.mem_ctrls.perBankRdBursts::2            518439                       # Per bank write bursts
system.mem_ctrls.perBankRdBursts::3            518581                       # Per bank write bursts
system.mem_ctrls.perBankRdBursts::4            518721                       # Per bank write bursts
system.mem_ctrls.perBankRdBursts::5            518517                       # Per bank write bursts
system.mem_ctrls.perBankRdBursts::6            518375                       # Per bank write bursts
system.mem_ctrls.perBankRdBursts::7            518361                       # Per bank write bursts
system.mem_ctrls.perBankRdBursts::8            518259                       # Per bank write bursts
system.mem_ctrls.perBankRdBursts::9            518429                       # Per bank write bursts
system.mem_ctrls.perBankRdBursts::10           518594                       # Per bank write bursts
system.mem_ctrls.perBankRdBursts::11           518828                       # Per bank write bursts
system.mem_ctrls.perBankRdBursts::12           518736                       # Per bank write bursts
system.mem_ctrls.perBankRdBursts::13           518737                       # Per bank write bursts
system.mem_ctrls.perBankRdBursts::14           518706                       # Per bank write bursts
system.mem_ctrls.perBankRdBursts::15           518736                       # Per bank write bursts
system.mem_ctrls.perBankWrBursts::0            517242                       # Per bank write bursts
system.mem_ctrls.perBankWrBursts::1            517263                       # Per bank write bursts
system.mem_ctrls.perBankWrBursts::2            517293                       # Per bank write bursts
system.mem_ctrls.perBankWrBursts::3            517360                       # Per bank write bursts
system.mem_ctrls.perBankWrBursts::4            517466                       # Per bank write bursts
system.mem_ctrls.perBankWrBursts::5            517257                       # Per bank write bursts
system.mem_ctrls.perBankWrBursts::6            517198                       # Per bank write bursts
system.mem_ctrls.perBankWrBursts::7            517126                       # Per bank write bursts
system.mem_ctrls.perBankWrBursts::8            517107                       # Per bank write bursts
system.mem_ctrls.perBankWrBursts::9            517215                       # Per bank write bursts
system.mem_ctrls.perBankWrBursts::10           517385                       # Per bank write bursts
system.mem_ctrls.perBankWrBursts::11           517612                       # Per bank write bursts
system.mem_ctrls.perBankWrBursts::12           517561                       # Per bank write bursts
system.mem_ctrls.perBankWrBursts::13           517575                       # Per bank write bursts
system.mem_ctrls.perBankWrBursts::14           517563                       # Per bank write bursts
system.mem_ctrls.perBankWrBursts::15           517538                       # Per bank write bursts
system.mem_ctrls.priorityMaxLatency      0.005249114500                       # per QoS priority maximum request to response latency (s)
system.mem_ctrls.priorityMinLatency      0.000000018750                       # per QoS priority minimum request to response latency (s)
system.mem_ctrls.pwrStateResidencyTicks::UNDEFINED 957383449500                       # Cumulative time (in ticks) in various power states
system.mem_ctrls.rdPerTurnAround::samples       517090                       # Reads before turning the bus around for writes
system.mem_ctrls.rdPerTurnAround::mean      16.045402                       # Reads before turning the bus around for writes
system.mem_ctrls.rdPerTurnAround::gmean     16.011449                       # Reads before turning the bus around for writes
system.mem_ctrls.rdPerTurnAround::stdev     10.382852                       # Reads before turning the bus around for writes
system.mem_ctrls.rdPerTurnAround::0-255        517078    100.00%    100.00% # Reads before turning the bus around for writes
system.mem_ctrls.rdPerTurnAround::256-511            6      0.00%    100.00% # Reads before turning the bus around for writes
system.mem_ctrls.rdPerTurnAround::512-767            1      0.00%    100.00% # Reads before turning the bus around for writes
system.mem_ctrls.rdPerTurnAround::768-1023            1      0.00%    100.00% # Reads before turning the bus around for writes
system.mem_ctrls.rdPerTurnAround::1024-1279            1      0.00%    100.00% # Reads before turning the bus around for writes
system.mem_ctrls.rdPerTurnAround::2304-2559            1      0.00%    100.00% # Reads before turning the bus around for writes
system.mem_ctrls.rdPerTurnAround::3584-3839            1      0.00%    100.00% # Reads before turning the bus around for writes
system.mem_ctrls.rdPerTurnAround::5632-5887            1      0.00%    100.00% # Reads before turning the bus around for writes
system.mem_ctrls.rdPerTurnAround::total        517090                       # Reads before turning the bus around for writes
system.mem_ctrls.rdQLenPdf::0                 8296931                       # What read queue length does an incoming req see
system.mem_ctrls.rdQLenPdf::1                       1                       # What read queue length does an incoming req see
system.mem_ctrls.rdQLenPdf::2                       0                       # What read queue length does an incoming req see
system.mem_ctrls.rdQLenPdf::3                       0                       # What read queue length does an incoming req see
system.mem_ctrls.rdQLenPdf::4                       0                       # What read queue length does an incoming req see
system.mem_ctrls.rdQLenPdf::5                       0                       # What read queue length does an incoming req see
system.mem_ctrls.rdQLenPdf::6                       0                       # What read queue length does an incoming req see
system.mem_ctrls.rdQLenPdf::7                       0                       # What read queue length does an incoming req see
system.mem_ctrls.rdQLenPdf::8                       0                       # What read queue length does an incoming req see
system.mem_ctrls.rdQLenPdf::9                       0                       # What read queue length does an incoming req see
system.mem_ctrls.rdQLenPdf::10                      0                       # What read queue length does an incoming req see
system.mem_ctrls.rdQLenPdf::11                      0                       # What read queue length does an incoming req see
system.mem_ctrls.rdQLenPdf::12                      0                       # What read queue length does an incoming req see
system.mem_ctrls.rdQLenPdf::13                      0                       # What read queue length does an incoming req see
system.mem_ctrls.rdQLenPdf::14                      0                       # What read queue length does an incoming req see
system.mem_ctrls.rdQLenPdf::15                      0                       # What read queue length does an incoming req see
system.mem_ctrls.rdQLenPdf::16                      0                       # What read queue length does an incoming req see
system.mem_ctrls.rdQLenPdf::17                      0                       # What read queue length does an incoming req see
system.mem_ctrls.rdQLenPdf::18                      0                       # What read queue length does an incoming req see
system.mem_ctrls.rdQLenPdf::19                      0                       # What read queue length does an incoming req see
system.mem_ctrls.rdQLenPdf::20                      0                       # What read queue length does an incoming req see
system.mem_ctrls.rdQLenPdf::21                      0                       # What read queue length does an incoming req see
system.mem_ctrls.rdQLenPdf::22                      0                       # What read queue length does an incoming req see
system.mem_ctrls.rdQLenPdf::23                      0                       # What read queue length does an incoming req see
system.mem_ctrls.rdQLenPdf::24                      0                       # What read queue length does an incoming req see
system.mem_ctrls.rdQLenPdf::25                      0                       # What read queue length does an incoming req see
system.mem_ctrls.rdQLenPdf::26                      0                       # What read queue length does an incoming req see
system.mem_ctrls.rdQLenPdf::27                      0                       # What read queue length does an incoming req see
system.mem_ctrls.rdQLenPdf::28                      0                       # What read queue length does an incoming req see
system.mem_ctrls.rdQLenPdf::29                      0                       # What read queue length does an incoming req see
system.mem_ctrls.rdQLenPdf::30                      0                       # What read queue length does an incoming req see
system.mem_ctrls.rdQLenPdf::31                      0                       # What read queue length does an incoming req see
system.mem_ctrls.readBursts                   8296935                       # Number of DRAM read bursts, including those serviced by the write queue
system.mem_ctrls.readPktSize::0                     0                       # Read request sizes (log2)
system.mem_ctrls.readPktSize::1                     0                       # Read request sizes (log2)
system.mem_ctrls.readPktSize::2                     0                       # Read request sizes (log2)
system.mem_ctrls.readPktSize::3                     0                       # Read request sizes (log2)
system.mem_ctrls.readPktSize::4                     0                       # Read request sizes (log2)
system.mem_ctrls.readPktSize::5                     0                       # Read request sizes (log2)
system.mem_ctrls.readPktSize::6               8296935                       # Read request sizes (log2)
system.mem_ctrls.readReqs                     8296935                       # Number of read requests accepted
system.mem_ctrls.readRowHitRate                 91.74                       # Row buffer hit rate for reads
system.mem_ctrls.readRowHits                  7611196                       # Number of row buffer hits during reads
system.mem_ctrls.servicedByWrQ                      3                       # Number of DRAM read bursts serviced by the write queue
system.mem_ctrls.totBusLat                41484660000                       # Total ticks spent in databus transfers
system.mem_ctrls.totGap                  957381672500                       # Total gap between requests
system.mem_ctrls.totMemAccLat            299480830092                       # Total ticks spent from burst creation until serviced by the DRAM
system.mem_ctrls.totQLat                 143913355092                       # Total ticks spent queuing
system.mem_ctrls.wrPerTurnAround::samples       517090                       # Writes before turning the bus around for reads
system.mem_ctrls.wrPerTurnAround::mean      16.008356                       # Writes before turning the bus around for reads
[...]
system.mem_ctrls.wrQLenPdf::26                 517091                       # What write queue length does an incoming req see
system.mem_ctrls.wrQLenPdf::27                 517091                       # What write queue length does an incoming req see
system.mem_ctrls.wrQLenPdf::28                 517091                       # What write queue length does an incoming req see
system.mem_ctrls.wrQLenPdf::29                 517092                       # What write queue length does an incoming req see
system.mem_ctrls.wrQLenPdf::30                 517165                       # What write queue length does an incoming req see
system.mem_ctrls.wrQLenPdf::31                 517093                       # What write queue length does an incoming req see
system.mem_ctrls.wrQLenPdf::32                 517094                       # What write queue length does an incoming req see
system.mem_ctrls.wrQLenPdf::33                      0                       # What write queue length does an incoming req see
system.mem_ctrls.wrQLenPdf::34                      0                       # What write queue length does an incoming req see
system.mem_ctrls.wrQLenPdf::35                      0                       # What write queue length does an incoming req see
system.mem_ctrls.wrQLenPdf::36                      0                       # What write queue length does an incoming req see
system.mem_ctrls.wrQLenPdf::37                      0                       # What write queue length does an incoming req see
system.mem_ctrls.wrQLenPdf::38                      0                       # What write queue length does an incoming req see
system.mem_ctrls.wrQLenPdf::39                      0                       # What write queue length does an incoming req see
system.mem_ctrls.wrQLenPdf::40                      0                       # What write queue length does an incoming req see
system.mem_ctrls.wrQLenPdf::41                      0                       # What write queue length does an incoming req see
system.mem_ctrls.wrQLenPdf::42                      0                       # What write queue length does an incoming req see
system.mem_ctrls.wrQLenPdf::43                      0                       # What write queue length does an incoming req see
system.mem_ctrls.wrQLenPdf::44                      0                       # What write queue length does an incoming req see
system.mem_ctrls.wrQLenPdf::45                      0                       # What write queue length does an incoming req see
system.mem_ctrls.wrQLenPdf::46                      0                       # What write queue length does an incoming req see
system.mem_ctrls.wrQLenPdf::47                      0                       # What write queue length does an incoming req see
system.mem_ctrls.wrQLenPdf::48                      0                       # What write queue length does an incoming req see
system.mem_ctrls.wrQLenPdf::49                      0                       # What write queue length does an incoming req see
system.mem_ctrls.wrQLenPdf::50                      0                       # What write queue length does an incoming req see
system.mem_ctrls.wrQLenPdf::51                      0                       # What write queue length does an incoming req see
system.mem_ctrls.wrQLenPdf::52                      0                       # What write queue length does an incoming req see
system.mem_ctrls.wrQLenPdf::53                      0                       # What write queue length does an incoming req see
system.mem_ctrls.wrQLenPdf::54                      0                       # What write queue length does an incoming req see
system.mem_ctrls.wrQLenPdf::55                      0                       # What write queue length does an incoming req see
system.mem_ctrls.wrQLenPdf::56                      0                       # What write queue length does an incoming req see
system.mem_ctrls.wrQLenPdf::57                      0                       # What write queue length does an incoming req see
system.mem_ctrls.wrQLenPdf::58                      0                       # What write queue length does an incoming req see
system.mem_ctrls.wrQLenPdf::59                      0                       # What write queue length does an incoming req see
system.mem_ctrls.wrQLenPdf::60                      0                       # What write queue length does an incoming req see
system.mem_ctrls.wrQLenPdf::61                      0                       # What write queue length does an incoming req see
system.mem_ctrls.wrQLenPdf::62                      0                       # What write queue length does an incoming req see
system.mem_ctrls.wrQLenPdf::63                      0                       # What write queue length does an incoming req see
system.mem_ctrls.writeBursts                  8277792                       # Number of DRAM write bursts, including those merged in the write queue
system.mem_ctrls.writePktSize::0                    0                       # Write request sizes (log2)
system.mem_ctrls.writePktSize::1                    0                       # Write request sizes (log2)
system.mem_ctrls.writePktSize::2                    0                       # Write request sizes (log2)
system.mem_ctrls.writePktSize::3                    0                       # Write request sizes (log2)
system.mem_ctrls.writePktSize::4                    0                       # Write request sizes (log2)
system.mem_ctrls.writePktSize::5                    0                       # Write request sizes (log2)
system.mem_ctrls.writePktSize::6              8277792                       # Write request sizes (log2)
system.mem_ctrls.writeReqs                    8277792                       # Number of write requests accepted
system.mem_ctrls.writeRowHitRate                92.86                       # Row buffer hit rate for writes
system.mem_ctrls.writeRowHits                 7687142                       # Number of row buffer hits during writes
system.mem_ctrls_0.actBackEnergy          82493903790                       # Energy for active background per rank (pJ)
system.mem_ctrls_0.actEnergy               4557533400                       # Energy for activate commands per rank (pJ)
system.mem_ctrls_0.actPowerDownEnergy    131552238570                       # Energy for active power-down per rank (pJ)
system.mem_ctrls_0.averagePower            464.923845                       # Core power per rank (mW)
system.mem_ctrls_0.memoryStateTime::IDLE   2829361500                       # Time in different power states
system.mem_ctrls_0.memoryStateTime::REF   17928300000                       # Time in different power states
system.mem_ctrls_0.memoryStateTime::SREF 418779360250                       # Time in different power states
system.mem_ctrls_0.memoryStateTime::PRE_PDN  60220459016                       # Time in different power states
system.mem_ctrls_0.memoryStateTime::ACT  169309697992                       # Time in different power states
system.mem_ctrls_0.memoryStateTime::ACT_PDN 288316270742                       # Time in different power states
system.mem_ctrls_0.preBackEnergy           3443570400                       # Energy for precharge background per rank (pJ)
system.mem_ctrls_0.preEnergy               2422382655                       # Energy for precharge commands per rank (pJ)
system.mem_ctrls_0.prePowerDownEnergy     23127715680                       # Energy for precharge power-down per rank (pJ)
system.mem_ctrls_0.readEnergy             29616055980                       # Energy for read commands per rank (pJ)
system.mem_ctrls_0.refreshEnergy         42382501200.000008                       # Energy for refresh commands per rank (pJ)
system.mem_ctrls_0.selfRefreshEnergy     103909803720                       # Energy for self refresh per rank (pJ)
system.mem_ctrls_0.totalEnergy           445110394035                       # Total energy per rank (pJ)
system.mem_ctrls_0.totalIdleTime         767312777258                       # Total Idle time Per DRAM Rank
system.mem_ctrls_0.writeEnergy            21601430100                       # Energy for write commands per rank (pJ)
system.mem_ctrls_1.actBackEnergy          82476622530                       # Energy for active background per rank (pJ)
system.mem_ctrls_1.actEnergy               4555641300                       # Energy for activate commands per rank (pJ)
system.mem_ctrls_1.actPowerDownEnergy    131565224310                       # Energy for active power-down per rank (pJ)
system.mem_ctrls_1.averagePower            464.912736                       # Core power per rank (mW)
system.mem_ctrls_1.memoryStateTime::IDLE   2810461500                       # Time in different power states
system.mem_ctrls_1.memoryStateTime::REF   17929600000                       # Time in different power states
system.mem_ctrls_1.memoryStateTime::SREF 418755423000                       # Time in different power states
system.mem_ctrls_1.memoryStateTime::PRE_PDN  60270591263                       # Time in different power states
system.mem_ctrls_1.memoryStateTime::ACT  169272909993                       # Time in different power states
system.mem_ctrls_1.memoryStateTime::ACT_PDN 288344463744                       # Time in different power states
system.mem_ctrls_1.preBackEnergy           3436979520                       # Energy for precharge background per rank (pJ)
system.mem_ctrls_1.preEnergy               2421369390                       # Energy for precharge commands per rank (pJ)
system.mem_ctrls_1.prePowerDownEnergy     23146967040                       # Energy for precharge power-down per rank (pJ)
system.mem_ctrls_1.readEnergy             29624038500                       # Energy for read commands per rank (pJ)
system.mem_ctrls_1.refreshEnergy         42385574400.000008                       # Energy for refresh commands per rank (pJ)
system.mem_ctrls_1.selfRefreshEnergy     103875435240                       # Energy for self refresh per rank (pJ)
system.mem_ctrls_1.totalEnergy           445099758840                       # Total energy per rank (pJ)
system.mem_ctrls_1.totalIdleTime         767368672007                       # Total Idle time Per DRAM Rank
system.mem_ctrls_1.writeEnergy            21608482320                       # Energy for write commands per rank (pJ)
system.membus.pkt_count_system.l2.mem_side::system.mem_ctrls.port     24872241                       # Packet count per connected master and slave (bytes)
system.membus.pkt_count_system.l2.mem_side::total     24872241                       # Packet count per connected master and slave (bytes)
system.membus.pkt_count::total               24872241                       # Packet count per connected master and slave (bytes)
system.membus.pkt_size_system.l2.mem_side::system.mem_ctrls.port   1060782528                       # Cumulative packet size per connected master and slave (bytes)
system.membus.pkt_size_system.l2.mem_side::total   1060782528                       # Cumulative packet size per connected master and slave (bytes)
system.membus.pkt_size::total              1060782528                       # Cumulative packet size per connected master and slave (bytes)
system.membus.pwrStateResidencyTicks::UNDEFINED 957383449500                       # Cumulative time (in ticks) in various power states
system.membus.reqLayer2.occupancy         49687367742                       # Layer occupancy (ticks)
system.membus.reqLayer2.utilization               5.2                       # Layer utilization (%)
system.membus.respLayer1.occupancy        43627531158                       # Layer occupancy (ticks)
system.membus.respLayer1.utilization              4.6                       # Layer utilization (%)
system.membus.snoopTraffic                          0                       # Total snoop traffic (bytes)
system.membus.snoop_fanout::samples           8296935                       # Request fanout histogram
system.membus.snoop_fanout::mean                    0                       # Request fanout histogram
system.membus.snoop_fanout::stdev                   0                       # Request fanout histogram
system.membus.snoop_fanout::underflows              0      0.00%      0.00% # Request fanout histogram
system.membus.snoop_fanout::0                 8296935    100.00%    100.00% # Request fanout histogram
system.membus.snoop_fanout::1                       0      0.00%    100.00% # Request fanout histogram
system.membus.snoop_fanout::overflows               0      0.00%    100.00% # Request fanout histogram
system.membus.snoop_fanout::min_value               0                       # Request fanout histogram
system.membus.snoop_fanout::max_value               0                       # Request fanout histogram
system.membus.snoop_fanout::total             8296935                       # Request fanout histogram
system.membus.snoop_filter.hit_multi_requests            0                       # Number of requests hitting in the snoop filter with multiple (>1) holders of the requested data.
system.membus.snoop_filter.hit_multi_snoops            0                       # Number of snoops hitting in the snoop filter with multiple (>1) holders of the requested data.
system.membus.snoop_filter.hit_single_requests      8278371                       # Number of requests hitting in the snoop filter with a single holder of the requested data.
system.membus.snoop_filter.hit_single_snoops            0                       # Number of snoops hitting in the snoop filter with a single holder of the requested data.
system.membus.snoop_filter.tot_requests      16575306                       # Total number of requests made to the snoop filter.
system.membus.snoop_filter.tot_snoops               0                       # Total number of snoops made to the snoop filter.
system.membus.snoops                                0                       # Total snoops (count)
system.membus.trans_dist::ReadResp               7204                       # Transaction distribution
system.membus.trans_dist::WritebackDirty      8277792                       # Transaction distribution
system.membus.trans_dist::CleanEvict              579                       # Transaction distribution
system.membus.trans_dist::ReadExReq           8289731                       # Transaction distribution
system.membus.trans_dist::ReadExResp          8289731                       # Transaction distribution
system.membus.trans_dist::ReadSharedReq          7204                       # Transaction distribution
system.pwrStateResidencyTicks::UNDEFINED 957383449500                       # Cumulative time (in ticks) in various power states
system.tol2bus.pkt_count_system.cpu.icache.mem_side::system.l2.cpu_side         5167                       # Packet count per connected master and slave (bytes)
system.tol2bus.pkt_count_system.cpu.dcache.mem_side::system.l2.cpu_side     24884654                       # Packet count per connected master and slave (bytes)
system.tol2bus.pkt_count::total              24889821                       # Packet count per connected master and slave (bytes)
system.tol2bus.pkt_size_system.cpu.icache.mem_side::system.l2.cpu_side       190592                       # Cumulative packet size per connected master and slave (bytes)
system.tol2bus.pkt_size_system.cpu.dcache.mem_side::system.l2.cpu_side   1061599040                       # Cumulative packet size per connected master and slave (bytes)
system.tol2bus.pkt_size::total             1061789632                       # Cumulative packet size per connected master and slave (bytes)
system.tol2bus.pwrStateResidencyTicks::UNDEFINED 957383449500                       # Cumulative time (in ticks) in various power states
system.tol2bus.reqLayer0.occupancy        16587715000                       # Layer occupancy (ticks)
system.tol2bus.reqLayer0.utilization              1.7                       # Layer utilization (%)
system.tol2bus.respLayer0.occupancy           3283500                       # Layer occupancy (ticks)
system.tol2bus.respLayer0.utilization             0.0                       # Layer utilization (%)
system.tol2bus.respLayer1.occupancy       12444375000                       # Layer occupancy (ticks)
system.tol2bus.respLayer1.utilization             1.3                       # Layer utilization (%)
system.tol2bus.snoopTraffic                 529778688                       # Total snoop traffic (bytes)
system.tol2bus.snoop_fanout::samples         16586681                       # Request fanout histogram
system.tol2bus.snoop_fanout::mean            0.000612                       # Request fanout histogram
system.tol2bus.snoop_fanout::stdev           0.024726                       # Request fanout histogram
system.tol2bus.snoop_fanout::underflows             0      0.00%      0.00% # Request fanout histogram
system.tol2bus.snoop_fanout::0               16576537     99.94%     99.94% # Request fanout histogram
system.tol2bus.snoop_fanout::1                  10143      0.06%    100.00% # Request fanout histogram
system.tol2bus.snoop_fanout::2                      1      0.00%    100.00% # Request fanout histogram
system.tol2bus.snoop_fanout::3                      0      0.00%    100.00% # Request fanout histogram
system.tol2bus.snoop_fanout::4                      0      0.00%    100.00% # Request fanout histogram
system.tol2bus.snoop_fanout::overflows              0      0.00%    100.00% # Request fanout histogram
system.tol2bus.snoop_fanout::min_value              0                       # Request fanout histogram
system.tol2bus.snoop_fanout::max_value              2                       # Request fanout histogram
system.tol2bus.snoop_fanout::total           16586681                       # Request fanout histogram
system.tol2bus.snoop_filter.hit_multi_requests            1                       # Number of requests hitting in the snoop filter with multiple (>1) holders of the requested data.
system.tol2bus.snoop_filter.hit_multi_snoops            1                       # Number of snoops hitting in the snoop filter with multiple (>1) holders of the requested data.
system.tol2bus.snoop_filter.hit_single_requests      8292943                       # Number of requests hitting in the snoop filter with a single holder of the requested data.
system.tol2bus.snoop_filter.hit_single_snoops        10142                       # Number of snoops hitting in the snoop filter with a single holder of the requested data.
system.tol2bus.snoop_filter.tot_requests     16591382                       # Total number of requests made to the snoop filter.
system.tol2bus.snoop_filter.tot_snoops          10143                       # Total number of snoops made to the snoop filter.
system.tol2bus.snoops                         8288242                       # Total snoops (count)
system.tol2bus.trans_dist::ReadResp              8403                       # Transaction distribution
system.tol2bus.trans_dist::WritebackDirty     16569027                       # Transaction distribution
system.tol2bus.trans_dist::WritebackClean          789                       # Transaction distribution
system.tol2bus.trans_dist::CleanEvict           11369                       # Transaction distribution
system.tol2bus.trans_dist::ReadExReq          8290036                       # Transaction distribution
system.tol2bus.trans_dist::ReadExResp         8290036                       # Transaction distribution
system.tol2bus.trans_dist::ReadCleanReq          2189                       # Transaction distribution
system.tol2bus.trans_dist::ReadSharedReq         6214                       # Transaction distribution
system.voltage_domain.voltage                       1                       # Voltage in Volts

---------- End Simulation Statistics   ----------
