
---------- Begin Simulation Statistics ----------
final_tick                               957771650500                       # Number of ticks from beginning of simulation (restored from checkpoints and never reset)
host_inst_rate                                 253077                       # Simulator instruction rate (inst/s)
host_mem_usage                                 822116                       # Number of bytes of host memory used
host_op_rate                                   458409                       # Simulator op (including micro ops) rate (op/s)
host_seconds                                   395.14                       # Real time elapsed on the host
host_tick_rate                             2423903472                       # Simulator tick rate (ticks/s)
sim_freq                                 1000000000000                       # Frequency of simulated ticks
sim_insts                                   100000001                       # Number of instructions simulated
sim_ops                                     181133978                       # Number of ops (including micro ops) simulated
sim_seconds                                  0.957772                       # Number of seconds simulated
sim_ticks                                957771650500                       # Number of ticks simulated
system.clk_domain.clock                          1000                       # Clock period in ticks
system.cpu.Branches                          13383360                       # Number of branches fetched
system.cpu.apic_clk_domain.clock                 8000                       # Clock period in ticks
system.cpu.committedInsts                   100000001                       # Number of instructions committed
system.cpu.committedOps                     181133978                       # Number of ops (including micro ops) committed
system.cpu.dcache.ReadReq_accesses::.cpu.data     14664116                       # number of ReadReq accesses(hits+misses)
system.cpu.dcache.ReadReq_accesses::total     14664116                       # number of ReadReq accesses(hits+misses)
system.cpu.dcache.ReadReq_avg_miss_latency::.cpu.data 236867.852605                       # average ReadReq miss latency
system.cpu.dcache.ReadReq_avg_miss_latency::total 236867.852605                       # average ReadReq miss latency
system.cpu.dcache.ReadReq_avg_mshr_miss_latency::.cpu.data 235867.852605                       # average ReadReq mshr miss latency
system.cpu.dcache.ReadReq_avg_mshr_miss_latency::total 235867.852605                       # average ReadReq mshr miss latency
system.cpu.dcache.ReadReq_hits::.cpu.data     14656246                       # number of ReadReq hits
system.cpu.dcache.ReadReq_hits::total        14656246                       # number of ReadReq hits
system.cpu.dcache.ReadReq_miss_latency::.cpu.data   1864150000                       # number of ReadReq miss cycles
system.cpu.dcache.ReadReq_miss_latency::total   1864150000                       # number of ReadReq miss cycles
system.cpu.dcache.ReadReq_miss_rate::.cpu.data     0.000537                       # miss rate for ReadReq accesses
system.cpu.dcache.ReadReq_miss_rate::total     0.000537                       # miss rate for ReadReq accesses
system.cpu.dcache.ReadReq_misses::.cpu.data         7870                       # number of ReadReq misses
system.cpu.dcache.ReadReq_misses::total          7870                       # number of ReadReq misses
system.cpu.dcache.ReadReq_mshr_miss_latency::.cpu.data   1856280000                       # number of ReadReq MSHR miss cycles
system.cpu.dcache.ReadReq_mshr_miss_latency::total   1856280000                       # number of ReadReq MSHR miss cycles
system.cpu.dcache.ReadReq_mshr_miss_rate::.cpu.data     0.000537                       # mshr miss rate for ReadReq accesses
system.cpu.dcache.ReadReq_mshr_miss_rate::total     0.000537                       # mshr miss rate for ReadReq accesses
system.cpu.dcache.ReadReq_mshr_misses::.cpu.data         7870                       # number of ReadReq MSHR misses
system.cpu.dcache.ReadReq_mshr_misses::total         7870                       # number of ReadReq MSHR misses
system.cpu.dcache.WriteReq_accesses::.cpu.data     70485123                       # number of WriteReq accesses(hits+misses)
system.cpu.dcache.WriteReq_accesses::total     70485123                       # number of WriteReq accesses(hits+misses)
system.cpu.dcache.WriteReq_avg_miss_latency::.cpu.data 89223.005180                       # average WriteReq miss latency
system.cpu.dcache.WriteReq_avg_miss_latency::total 89223.005180                       # average WriteReq miss latency
system.cpu.dcache.WriteReq_avg_mshr_miss_latency::.cpu.data 88223.005180                       # average WriteReq mshr miss latency
system.cpu.dcache.WriteReq_avg_mshr_miss_latency::total 88223.005180                       # average WriteReq mshr miss latency
system.cpu.dcache.WriteReq_hits::.cpu.data     62194273                       # number of WriteReq hits
system.cpu.dcache.WriteReq_hits::total       62194273                       # number of WriteReq hits
system.cpu.dcache.WriteReq_miss_latency::.cpu.data 739734552500                       # number of WriteReq miss cycles
system.cpu.dcache.WriteReq_miss_latency::total 739734552500                       # number of WriteReq miss cycles
system.cpu.dcache.WriteReq_miss_rate::.cpu.data     0.117626                       # miss rate for WriteReq accesses
system.cpu.dcache.WriteReq_miss_rate::total     0.117626                       # miss rate for WriteReq accesses
system.cpu.dcache.WriteReq_misses::.cpu.data      8290850                       # number of WriteReq misses
system.cpu.dcache.WriteReq_misses::total      8290850                       # number of WriteReq misses
system.cpu.dcache.WriteReq_mshr_miss_latency::.cpu.data 731443702500                       # number of WriteReq MSHR miss cycles
system.cpu.dcache.WriteReq_mshr_miss_latency::total 731443702500                       # number of WriteReq MSHR miss cycles
system.cpu.dcache.WriteReq_mshr_miss_rate::.cpu.data     0.117626                       # mshr miss rate for WriteReq accesses
system.cpu.dcache.WriteReq_mshr_miss_rate::total     0.117626                       # mshr miss rate for WriteReq accesses
system.cpu.dcache.WriteReq_mshr_misses::.cpu.data      8290850                       # number of WriteReq MSHR misses
system.cpu.dcache.WriteReq_mshr_misses::total      8290850                       # number of WriteReq MSHR misses
system.cpu.dcache.avg_blocked_cycles::no_mshrs          nan                       # average number of cycles each access was blocked
system.cpu.dcache.avg_blocked_cycles::no_targets          nan                       # average number of cycles each access was blocked
system.cpu.dcache.blocked::no_mshrs                 0                       # number of cycles access was blocked
system.cpu.dcache.blocked::no_targets               0                       # number of cycles access was blocked
system.cpu.dcache.blocked_cycles::no_mshrs            0                       # number of cycles access was blocked
system.cpu.dcache.blocked_cycles::no_targets            0                       # number of cycles access was blocked
system.cpu.dcache.demand_accesses::.cpu.data     85149239                       # number of demand (read+write) accesses
system.cpu.dcache.demand_accesses::total     85149239                       # number of demand (read+write) accesses
system.cpu.dcache.demand_avg_miss_latency::.cpu.data 89363.022550                       # average overall miss latency
system.cpu.dcache.demand_avg_miss_latency::total 89363.022550                       # average overall miss latency
system.cpu.dcache.demand_avg_mshr_miss_latency::.cpu.data 88363.022550                       # average overall mshr miss latency
system.cpu.dcache.demand_avg_mshr_miss_latency::total 88363.022550                       # average overall mshr miss latency
system.cpu.dcache.demand_hits::.cpu.data     76850519                       # number of demand (read+write) hits
system.cpu.dcache.demand_hits::total         76850519                       # number of demand (read+write) hits
system.cpu.dcache.demand_miss_latency::.cpu.data 741598702500                       # number of demand (read+write) miss cycles
system.cpu.dcache.demand_miss_latency::total 741598702500                       # number of demand (read+write) miss cycles
system.cpu.dcache.demand_miss_rate::.cpu.data     0.097461                       # miss rate for demand accesses
system.cpu.dcache.demand_miss_rate::total     0.097461                       # miss rate for demand accesses
system.cpu.dcache.demand_misses::.cpu.data      8298720                       # number of demand (read+write) misses
system.cpu.dcache.demand_misses::total        8298720                       # number of demand (read+write) misses
system.cpu.dcache.demand_mshr_miss_latency::.cpu.data 733299982500                       # number of demand (read+write) MSHR miss cycles
system.cpu.dcache.demand_mshr_miss_latency::total 733299982500                       # number of demand (read+write) MSHR miss cycles
system.cpu.dcache.demand_mshr_miss_rate::.cpu.data     0.097461                       # mshr miss rate for demand accesses
system.cpu.dcache.demand_mshr_miss_rate::total     0.097461                       # mshr miss rate for demand accesses
system.cpu.dcache.demand_mshr_misses::.cpu.data      8298720                       # number of demand (read+write) MSHR misses
system.cpu.dcache.demand_mshr_misses::total      8298720                       # number of demand (read+write) MSHR misses
system.cpu.dcache.overall_accesses::.cpu.data     85149239                       # number of overall (read+write) accesses
system.cpu.dcache.overall_accesses::total     85149239                       # number of overall (read+write) accesses
system.cpu.dcache.overall_avg_miss_latency::.cpu.data 89363.022550                       # average overall miss latency
system.cpu.dcache.overall_avg_miss_latency::total 89363.022550                       # average overall miss latency
system.cpu.dcache.overall_avg_mshr_miss_latency::.cpu.data 88363.022550                       # average overall mshr miss latency
system.cpu.dcache.overall_avg_mshr_miss_latency::total 88363.022550                       # average overall mshr miss latency
system.cpu.dcache.overall_hits::.cpu.data     76850519                       # number of overall hits
system.cpu.dcache.overall_hits::total        76850519                       # number of overall hits
system.cpu.dcache.overall_miss_latency::.cpu.data 741598702500                       # number of overall miss cycles
system.cpu.dcache.overall_miss_latency::total 741598702500                       # number of overall miss cycles
system.cpu.dcache.overall_miss_rate::.cpu.data     0.097461                       # miss rate for overall accesses
system.cpu.dcache.overall_miss_rate::total     0.097461                       # miss rate for overall accesses
system.cpu.dcache.overall_misses::.cpu.data      8298720                       # number of overall misses
system.cpu.dcache.overall_misses::total       8298720                       # number of overall misses
system.cpu.dcache.overall_mshr_miss_latency::.cpu.data 733299982500                       # number of overall MSHR miss cycles
system.cpu.dcache.overall_mshr_miss_latency::total 733299982500                       # number of overall MSHR miss cycles
system.cpu.dcache.overall_mshr_miss_rate::.cpu.data     0.097461                       # mshr miss rate for overall accesses
system.cpu.dcache.overall_mshr_miss_rate::total     0.097461                       # mshr miss rate for overall accesses
system.cpu.dcache.overall_mshr_misses::.cpu.data      8298720                       # number of overall MSHR misses
system.cpu.dcache.overall_mshr_misses::total      8298720                       # number of overall MSHR misses
system.cpu.dcache.pwrStateResidencyTicks::UNDEFINED 957771650500                       # Cumulative time (in ticks) in various power states
system.cpu.dcache.replacements                8296672                       # number of replacements
system.cpu.dcache.tags.age_task_id_blocks_1024::0            4                       # Occupied blocks per task id
system.cpu.dcache.tags.age_task_id_blocks_1024::1            8                       # Occupied blocks per task id
system.cpu.dcache.tags.age_task_id_blocks_1024::2           85                       # Occupied blocks per task id
system.cpu.dcache.tags.age_task_id_blocks_1024::3          392                       # Occupied blocks per task id
system.cpu.dcache.tags.age_task_id_blocks_1024::4         1559                       # Occupied blocks per task id
system.cpu.dcache.tags.avg_refs             10.260527                       # Average number of references to valid blocks.
system.cpu.dcache.tags.data_accesses        178597198                       # Number of data accesses
system.cpu.dcache.tags.occ_blocks::.cpu.data  2043.607957                       # Average occupied blocks per requestor
system.cpu.dcache.tags.occ_percent::.cpu.data     0.997855                       # Average percentage of cache occupancy
system.cpu.dcache.tags.occ_percent::total     0.997855                       # Average percentage of cache occupancy
system.cpu.dcache.tags.occ_task_id_blocks::1024         2048                       # Occupied blocks per task id
system.cpu.dcache.tags.occ_task_id_percent::1024            1                       # Percentage of cache occupancy per task id
system.cpu.dcache.tags.pwrStateResidencyTicks::UNDEFINED 957771650500                       # Cumulative time (in ticks) in various power states
system.cpu.dcache.tags.sampled_refs           8298720                       # Sample count of references to valid blocks.
system.cpu.dcache.tags.tag_accesses         178597198                       # Number of tag accesses
system.cpu.dcache.tags.tagsinuse          2043.607957                       # Cycle average of tags in use
system.cpu.dcache.tags.total_refs            85149239                       # Total number of references to valid blocks.
system.cpu.dcache.tags.warmup_cycle            181500                       # Cycle when the warmup percentage was hit.
system.cpu.dcache.writebacks::.writebacks      8294555                       # number of writebacks
system.cpu.dcache.writebacks::total           8294555                       # number of writebacks
system.cpu.dtb.pwrStateResidencyTicks::UNDEFINED 957771650500                       # Cumulative time (in ticks) in various power states
system.cpu.dtb.rdAccesses                    14664116                       # TLB accesses on read requests
system.cpu.dtb.rdMisses                         12989                       # TLB misses on read requests
system.cpu.dtb.walker.pwrStateResidencyTicks::UNDEFINED 957771650500                       # Cumulative time (in ticks) in various power states
system.cpu.dtb.wrAccesses                    70485123                       # TLB accesses on write requests
system.cpu.dtb.wrMisses                        130894                       # TLB misses on write requests
system.cpu.dtb_walker_cache.avg_blocked_cycles::no_mshrs          nan                       # average number of cycles each access was blocked
system.cpu.dtb_walker_cache.avg_blocked_cycles::no_targets          nan                       # average number of cycles each access was blocked
system.cpu.dtb_walker_cache.blocked::no_mshrs            0                       # number of cycles access was blocked
system.cpu.dtb_walker_cache.blocked::no_targets            0                       # number of cycles access was blocked
system.cpu.dtb_walker_cache.blocked_cycles::no_mshrs            0                       # number of cycles access was blocked
system.cpu.dtb_walker_cache.blocked_cycles::no_targets            0                       # number of cycles access was blocked
system.cpu.dtb_walker_cache.pwrStateResidencyTicks::UNDEFINED 957771650500                       # Cumulative time (in ticks) in various power states
system.cpu.dtb_walker_cache.replacements            0                       # number of replacements
system.cpu.dtb_walker_cache.tags.avg_refs          nan                       # Average number of references to valid blocks.
system.cpu.dtb_walker_cache.tags.data_accesses            0                       # Number of data accesses
system.cpu.dtb_walker_cache.tags.pwrStateResidencyTicks::UNDEFINED 957771650500                       # Cumulative time (in ticks) in various power states
system.cpu.dtb_walker_cache.tags.sampled_refs            0                       # Sample count of references to valid blocks.
system.cpu.dtb_walker_cache.tags.tag_accesses            0                       # Number of tag accesses
system.cpu.dtb_walker_cache.tags.tagsinuse            0                       # Cycle average of tags in use
system.cpu.dtb_walker_cache.tags.total_refs            0                       # Total number of references to valid blocks.
system.cpu.dtb_walker_cache.tags.warmup_cycle            0                       # Cycle when the warmup percentage was hit.
system.cpu.icache.ReadReq_accesses::.cpu.inst    139152120                       # number of ReadReq accesses(hits+misses)
system.cpu.icache.ReadReq_accesses::total    139152120                       # number of ReadReq accesses(hits+misses)
system.cpu.icache.ReadReq_avg_miss_latency::.cpu.inst 110067.135550                       # average ReadReq miss latency
system.cpu.icache.ReadReq_avg_miss_latency::total 110067.135550                       # average ReadReq miss latency
system.cpu.icache.ReadReq_avg_mshr_miss_latency::.cpu.inst 109067.135550                       # average ReadReq mshr miss latency
system.cpu.icache.ReadReq_avg_mshr_miss_latency::total 109067.135550                       # average ReadReq mshr miss latency
system.cpu.icache.ReadReq_hits::.cpu.inst    139150556                       # number of ReadReq hits
system.cpu.icache.ReadReq_hits::total       139150556                       # number of ReadReq hits
system.cpu.icache.ReadReq_miss_latency::.cpu.inst    172145000                       # number of ReadReq miss cycles
system.cpu.icache.ReadReq_miss_latency::total    172145000                       # number of ReadReq miss cycles
system.cpu.icache.ReadReq_miss_rate::.cpu.inst     0.000011                       # miss rate for ReadReq accesses
system.cpu.icache.ReadReq_miss_rate::total     0.000011                       # miss rate for ReadReq accesses
system.cpu.icache.ReadReq_misses::.cpu.inst         1564                       # number of ReadReq misses
system.cpu.icache.ReadReq_misses::total          1564                       # number of ReadReq misses
system.cpu.icache.ReadReq_mshr_miss_latency::.cpu.inst    170581000                       # number of ReadReq MSHR miss cycles
system.cpu.icache.ReadReq_mshr_miss_latency::total    170581000                       # number of ReadReq MSHR miss cycles
system.cpu.icache.ReadReq_mshr_miss_rate::.cpu.inst     0.000011                       # mshr miss rate for ReadReq accesses
system.cpu.icache.ReadReq_mshr_miss_rate::total     0.000011                       # mshr miss rate for ReadReq accesses
system.cpu.icache.ReadReq_mshr_misses::.cpu.inst         1564                       # number of ReadReq MSHR misses
system.cpu.icache.ReadReq_mshr_misses::total         1564                       # number of ReadReq MSHR misses
system.cpu.icache.avg_blocked_cycles::no_mshrs          nan                       # average number of cycles each access was blocked
system.cpu.icache.avg_blocked_cycles::no_targets          nan                       # average number of cycles each access was blocked
system.cpu.icache.blocked::no_mshrs                 0                       # number of cycles access was blocked
system.cpu.icache.blocked::no_targets               0                       # number of cycles access was blocked
system.cpu.icache.blocked_cycles::no_mshrs            0                       # number of cycles access was blocked
system.cpu.icache.blocked_cycles::no_targets            0                       # number of cycles access was blocked
system.cpu.icache.demand_accesses::.cpu.inst    139152120                       # number of demand (read+write) accesses
system.cpu.icache.demand_accesses::total    139152120                       # number of demand (read+write) accesses
system.cpu.icache.demand_avg_miss_latency::.cpu.inst 110067.135550                       # average overall miss latency
system.cpu.icache.demand_avg_miss_latency::total 110067.135550                       # average overall miss latency
system.cpu.icache.demand_avg_mshr_miss_latency::.cpu.inst 109067.135550                       # average overall mshr miss latency
system.cpu.icache.demand_avg_mshr_miss_latency::total 109067.135550                       # average overall mshr miss latency
system.cpu.icache.demand_hits::.cpu.inst    139150556                       # number of demand (read+write) hits
system.cpu.icache.demand_hits::total        139150556                       # number of demand (read+write) hits
system.cpu.icache.demand_miss_latency::.cpu.inst    172145000                       # number of demand (read+write) miss cycles
system.cpu.icache.demand_miss_latency::total    172145000                       # number of demand (read+write) miss cycles
system.cpu.icache.demand_miss_rate::.cpu.inst     0.000011                       # miss rate for demand accesses
system.cpu.icache.demand_miss_rate::total     0.000011                       # miss rate for demand accesses
system.cpu.icache.demand_misses::.cpu.inst         1564                       # number of demand (read+write) misses
system.cpu.icache.demand_misses::total           1564                       # number of demand (read+write) misses
system.cpu.icache.demand_mshr_miss_latency::.cpu.inst    170581000                       # number of demand (read+write) MSHR miss cycles
system.cpu.icache.demand_mshr_miss_latency::total    170581000                       # number of demand (read+write) MSHR miss cycles
system.cpu.icache.demand_mshr_miss_rate::.cpu.inst     0.000011                       # mshr miss rate for demand accesses
system.cpu.icache.demand_mshr_miss_rate::total     0.000011                       # mshr miss rate for demand accesses
system.cpu.icache.demand_mshr_misses::.cpu.inst         1564                       # number of demand (read+write) MSHR misses
system.cpu.icache.demand_mshr_misses::total         1564                       # number of demand (read+write) MSHR misses
system.cpu.icache.overall_accesses::.cpu.inst    139152120                       # number of overall (read+write) accesses
system.cpu.icache.overall_accesses::total    139152120                       # number of overall (read+write) accesses
system.cpu.icache.overall_avg_miss_latency::.cpu.inst 110067.135550                       # average overall miss latency
system.cpu.icache.overall_avg_miss_latency::total 110067.135550                       # average overall miss latency
system.cpu.icache.overall_avg_mshr_miss_latency::.cpu.inst 109067.135550                       # average overall mshr miss latency
system.cpu.icache.overall_avg_mshr_miss_latency::total 109067.135550                       # average overall mshr miss latency
system.cpu.icache.overall_hits::.cpu.inst    139150556                       # number of overall hits
system.cpu.icache.overall_hits::total       139150556                       # number of overall hits
system.cpu.icache.overall_miss_latency::.cpu.inst    172145000                       # number of overall miss cycles
system.cpu.icache.overall_miss_latency::total    172145000                       # number of overall miss cycles
system.cpu.icache.overall_miss_rate::.cpu.inst     0.000011                       # miss rate for overall accesses
system.cpu.icache.overall_miss_rate::total     0.000011                       # miss rate for overall accesses
system.cpu.icache.overall_misses::.cpu.inst         1564                       # number of overall misses
system.cpu.icache.overall_misses::total          1564                       # number of overall misses
system.cpu.icache.overall_mshr_miss_latency::.cpu.inst    170581000                       # number of overall MSHR miss cycles
system.cpu.icache.overall_mshr_miss_latency::total    170581000                       # number of overall MSHR miss cycles
system.cpu.icache.overall_mshr_miss_rate::.cpu.inst     0.000011                       # mshr miss rate for overall accesses
system.cpu.icache.overall_mshr_miss_rate::total     0.000011                       # mshr miss rate for overall accesses
system.cpu.icache.overall_mshr_misses::.cpu.inst         1564                       # number of overall MSHR misses
system.cpu.icache.overall_mshr_misses::total         1564                       # number of overall MSHR misses
system.cpu.icache.pwrStateResidencyTicks::UNDEFINED 957771650500                       # Cumulative time (in ticks) in various power states
system.cpu.icache.replacements                      2                       # number of replacements
system.cpu.icache.tags.age_task_id_blocks_1024::3            1                       # Occupied blocks per task id
system.cpu.icache.tags.age_task_id_blocks_1024::4         1561                       # Occupied blocks per task id
system.cpu.icache.tags.avg_refs          88971.943734                       # Average number of references to valid blocks.
system.cpu.icache.tags.data_accesses       2226435484                       # Number of data accesses
system.cpu.icache.tags.occ_blocks::.cpu.inst   641.874725                       # Average occupied blocks per requestor
system.cpu.icache.tags.occ_percent::.cpu.inst     0.313415                       # Average percentage of cache occupancy
system.cpu.icache.tags.occ_percent::total     0.313415                       # Average percentage of cache occupancy
system.cpu.icache.tags.occ_task_id_blocks::1024         1562                       # Occupied blocks per task id
system.cpu.icache.tags.occ_task_id_percent::1024     0.762695                       # Percentage of cache occupancy per task id
system.cpu.icache.tags.pwrStateResidencyTicks::UNDEFINED 957771650500                       # Cumulative time (in ticks) in various power states
system.cpu.icache.tags.sampled_refs              1564                       # Sample count of references to valid blocks.
system.cpu.icache.tags.tag_accesses        2226435484                       # Number of tag accesses
system.cpu.icache.tags.tagsinuse           641.874725                       # Cycle average of tags in use
system.cpu.icache.tags.total_refs           139152120                       # Total number of references to valid blocks.
system.cpu.icache.tags.warmup_cycle             87500                       # Cycle when the warmup percentage was hit.
system.cpu.icache.writebacks::.writebacks            2                       # number of writebacks
system.cpu.icache.writebacks::total                 2                       # number of writebacks
system.cpu.idle_fraction                            0                       # Percentage of idle cycles
system.cpu.interrupts.pwrStateResidencyTicks::UNDEFINED 957771650500                       # Cumulative time (in ticks) in various power states
system.cpu.itb.pwrStateResidencyTicks::UNDEFINED 957771650500                       # Cumulative time (in ticks) in various power states
system.cpu.itb.rdAccesses                           0                       # TLB accesses on read requests
system.cpu.itb.rdMisses                             0                       # TLB misses on read requests
system.cpu.itb.walker.pwrStateResidencyTicks::UNDEFINED 957771650500                       # Cumulative time (in ticks) in various power states
system.cpu.itb.wrAccesses                   139152120                       # TLB accesses on write requests
system.cpu.itb.wrMisses                            75                       # TLB misses on write requests
system.cpu.itb_walker_cache.avg_blocked_cycles::no_mshrs          nan                       # average number of cycles each access was blocked
system.cpu.itb_walker_cache.avg_blocked_cycles::no_targets          nan                       # average number of cycles each access was blocked
system.cpu.itb_walker_cache.blocked::no_mshrs            0                       # number of cycles access was blocked
system.cpu.itb_walker_cache.blocked::no_targets            0                       # number of cycles access was blocked
system.cpu.itb_walker_cache.blocked_cycles::no_mshrs            0                       # number of cycles access was blocked
system.cpu.itb_walker_cache.blocked_cycles::no_targets            0                       # number of cycles access was blocked
system.cpu.itb_walker_cache.pwrStateResidencyTicks::UNDEFINED 957771650500                       # Cumulative time (in ticks) in various power states
system.cpu.itb_walker_cache.replacements            0                       # number of replacements
system.cpu.itb_walker_cache.tags.avg_refs          nan                       # Average number of references to valid blocks.
system.cpu.itb_walker_cache.tags.data_accesses            0                       # Number of data accesses
system.cpu.itb_walker_cache.tags.pwrStateResidencyTicks::UNDEFINED 957771650500                       # Cumulative time (in ticks) in various power states
system.cpu.itb_walker_cache.tags.sampled_refs            0                       # Sample count of references to valid blocks.
system.cpu.itb_walker_cache.tags.tag_accesses            0                       # Number of tag accesses
system.cpu.itb_walker_cache.tags.tagsinuse            0                       # Cycle average of tags in use
system.cpu.itb_walker_cache.tags.total_refs            0                       # Total number of references to valid blocks.
system.cpu.itb_walker_cache.tags.warmup_cycle            0                       # Cycle when the warmup percentage was hit.
system.cpu.not_idle_fraction                        1                       # Percentage of non-idle cycles
system.cpu.numCycles                       1915543301                       # number of cpu cycles simulated
system.cpu.numWorkItemsCompleted                    0                       # number of work items this cpu completed
system.cpu.numWorkItemsStarted                      0                       # number of work items this cpu started
system.cpu.num_busy_cycles                 1915543301                       # Number of busy cycles
system.cpu.num_cc_register_reads             66390676                       # number of times the CC registers were read
system.cpu.num_cc_register_writes            58331008                       # number of times the CC registers were written
system.cpu.num_conditional_control_insts     12357318                       # number of instructions that are conditional controls
system.cpu.num_fp_alu_accesses               66079645                       # Number of float alu accesses
system.cpu.num_fp_insts                      66079645                       # number of float instructions
system.cpu.num_fp_register_reads             66107541                       # number of times the floating registers were read
system.cpu.num_fp_register_writes               34696                       # number of times the floating registers were written
system.cpu.num_func_calls                      481409                       # number of times a function call or return occured
system.cpu.num_idle_cycles                          0                       # Number of idle cycles
system.cpu.num_int_alu_accesses             180945640                       # Number of integer alu accesses
system.cpu.num_int_insts                    180945640                       # number of integer instructions
system.cpu.num_int_register_reads           393189365                       # number of times the integer registers were read
system.cpu.num_int_register_writes           97341166                       # number of times the integer registers were written
system.cpu.num_load_insts                    14663800                       # Number of load instructions
system.cpu.num_mem_refs                      85148913                       # number of memory refs
system.cpu.num_store_insts                   70485113                       # Number of store instructions
system.cpu.num_vec_alu_accesses                     0                       # Number of vector alu accesses
system.cpu.num_vec_insts                            0                       # number of vector instructions
system.cpu.num_vec_register_reads                   0                       # number of times the vector registers were read
system.cpu.num_vec_register_writes                  0                       # number of times the vector registers were written
system.cpu.op_class::No_OpClass                 17650      0.01%      0.01% # Class of executed instruction
system.cpu.op_class::IntAlu                  95763297     52.87%     52.88% # Class of executed instruction
system.cpu.op_class::IntMult                    94292      0.05%     52.93% # Class of executed instruction
system.cpu.op_class::IntDiv                     79926      0.04%     52.97% # Class of executed instruction
system.cpu.op_class::FloatAdd                    2214      0.00%     52.98% # Class of executed instruction
system.cpu.op_class::FloatCmp                       0      0.00%     52.98% # Class of executed instruction
system.cpu.op_class::FloatCvt                       0      0.00%     52.98% # Class of executed instruction
system.cpu.op_class::FloatMult                      0      0.00%     52.98% # Class of executed instruction
system.cpu.op_class::FloatMultAcc                   0      0.00%     52.98% # Class of executed instruction
system.cpu.op_class::FloatDiv                       0      0.00%     52.98% # Class of executed instruction
system.cpu.op_class::FloatMisc                      0      0.00%     52.98% # Class of executed instruction
system.cpu.op_class::FloatSqrt                      0      0.00%     52.98% # Class of executed instruction
system.cpu.op_class::SimdAdd                        0      0.00%     52.98% # Class of executed instruction
system.cpu.op_class::SimdAddAcc                     0      0.00%     52.98% # Class of executed instruction
system.cpu.op_class::SimdAlu                     4490      0.00%     52.98% # Class of executed instruction
system.cpu.op_class::SimdCmp                       12      0.00%     52.98% # Class of executed instruction
system.cpu.op_class::SimdCvt                     5116      0.00%     52.98% # Class of executed instruction
system.cpu.op_class::SimdMisc                   18029      0.01%     52.99% # Class of executed instruction
system.cpu.op_class::SimdMult                       0      0.00%     52.99% # Class of executed instruction
system.cpu.op_class::SimdMultAcc                    0      0.00%     52.99% # Class of executed instruction
system.cpu.op_class::SimdShift                      0      0.00%     52.99% # Class of executed instruction
system.cpu.op_class::SimdShiftAcc                   0      0.00%     52.99% # Class of executed instruction
system.cpu.op_class::SimdDiv                        0      0.00%     52.99% # Class of executed instruction
system.cpu.op_class::SimdSqrt                       0      0.00%     52.99% # Class of executed instruction
system.cpu.op_class::SimdFloatAdd                   0      0.00%     52.99% # Class of executed instruction
system.cpu.op_class::SimdFloatAlu                   0      0.00%     52.99% # Class of executed instruction
system.cpu.op_class::SimdFloatCmp                   0      0.00%     52.99% # Class of executed instruction
system.cpu.op_class::SimdFloatCvt                  29      0.00%     52.99% # Class of executed instruction
system.cpu.op_class::SimdFloatDiv                   5      0.00%     52.99% # Class of executed instruction
system.cpu.op_class::SimdFloatMisc                  0      0.00%     52.99% # Class of executed instruction
system.cpu.op_class::SimdFloatMult                  5      0.00%     52.99% # Class of executed instruction
system.cpu.op_class::SimdFloatMultAcc               0      0.00%     52.99% # Class of executed instruction
system.cpu.op_class::SimdFloatSqrt                  0      0.00%     52.99% # Class of executed instruction
system.cpu.op_class::SimdReduceAdd                  0      0.00%     52.99% # Class of executed instruction
system.cpu.op_class::SimdReduceAlu                  0      0.00%     52.99% # Class of executed instruction
system.cpu.op_class::SimdReduceCmp                  0      0.00%     52.99% # Class of executed instruction
system.cpu.op_class::SimdFloatReduceAdd             0      0.00%     52.99% # Class of executed instruction
system.cpu.op_class::SimdFloatReduceCmp             0      0.00%     52.99% # Class of executed instruction
system.cpu.op_class::SimdAes                        0      0.00%     52.99% # Class of executed instruction
system.cpu.op_class::SimdAesMix                     0      0.00%     52.99% # Class of executed instruction
system.cpu.op_class::SimdSha1Hash                   0      0.00%     52.99% # Class of executed instruction
system.cpu.op_class::SimdSha1Hash2                  0      0.00%     52.99% # Class of executed instruction
system.cpu.op_class::SimdSha256Hash                 0      0.00%     52.99% # Class of executed instruction
system.cpu.op_class::SimdSha256Hash2                0      0.00%     52.99% # Class of executed instruction
system.cpu.op_class::SimdShaSigma2                  0      0.00%     52.99% # Class of executed instruction
system.cpu.op_class::SimdShaSigma3                  0      0.00%     52.99% # Class of executed instruction
system.cpu.op_class::SimdPredAlu                    0      0.00%     52.99% # Class of executed instruction
system.cpu.op_class::MemRead                 14661131      8.09%     61.09% # Class of executed instruction
system.cpu.op_class::MemWrite                 4442793      2.45%     63.54% # Class of executed instruction
system.cpu.op_class::FloatMemRead                2669      0.00%     63.54% # Class of executed instruction
system.cpu.op_class::FloatMemWrite           66042320     36.46%    100.00% # Class of executed instruction
system.cpu.op_class::IprAccess                      0      0.00%    100.00% # Class of executed instruction
system.cpu.op_class::InstPrefetch                   0      0.00%    100.00% # Class of executed instruction
system.cpu.op_class::total                  181133978                       # Class of executed instruction
system.cpu.pwrStateResidencyTicks::ON    957771650500                       # Cumulative time (in ticks) in various power states
system.cpu.workload.numSyscalls                   146                       # Number of system calls
system.cpu_clk_domain.clock                       500                       # Clock period in ticks
system.cpu_voltage_domain.voltage                   1                       # Voltage in Volts
system.l2.CleanEvict_mshr_miss_rate::.writebacks          inf                       # mshr miss rate for CleanEvict accesses
system.l2.CleanEvict_mshr_miss_rate::total          inf                       # mshr miss rate for CleanEvict accesses
system.l2.CleanEvict_mshr_misses::.writebacks          323                       # number of CleanEvict MSHR misses
system.l2.CleanEvict_mshr_misses::total           323                       # number of CleanEvict MSHR misses
system.l2.ReadCleanReq_accesses::.cpu.inst         1564                       # number of ReadCleanReq accesses(hits+misses)
system.l2.ReadCleanReq_accesses::total           1564                       # number of ReadCleanReq accesses(hits+misses)
system.l2.ReadCleanReq_avg_miss_latency::.cpu.inst 107624.760077                       # average ReadCleanReq miss latency
system.l2.ReadCleanReq_avg_miss_latency::total 107624.760077                       # average ReadCleanReq miss latency
system.l2.ReadCleanReq_avg_mshr_miss_latency::.cpu.inst 97624.760077                       # average ReadCleanReq mshr miss latency
system.l2.ReadCleanReq_avg_mshr_miss_latency::total 97624.760077                       # average ReadCleanReq mshr miss latency
system.l2.ReadCleanReq_hits::.cpu.inst              1                       # number of ReadCleanReq hits
system.l2.ReadCleanReq_hits::total                  1                       # number of ReadCleanReq hits
system.l2.ReadCleanReq_miss_latency::.cpu.inst    168217500                       # number of ReadCleanReq miss cycles
system.l2.ReadCleanReq_miss_latency::total    168217500                       # number of ReadCleanReq miss cycles
system.l2.ReadCleanReq_miss_rate::.cpu.inst     0.999361                       # miss rate for ReadCleanReq accesses
system.l2.ReadCleanReq_miss_rate::total      0.999361                       # miss rate for ReadCleanReq accesses
system.l2.ReadCleanReq_misses::.cpu.inst         1563                       # number of ReadCleanReq misses
system.l2.ReadCleanReq_misses::total             1563                       # number of ReadCleanReq misses
system.l2.ReadCleanReq_mshr_miss_latency::.cpu.inst    152587500                       # number of ReadCleanReq MSHR miss cycles
system.l2.ReadCleanReq_mshr_miss_latency::total    152587500                       # number of ReadCleanReq MSHR miss cycles
system.l2.ReadCleanReq_mshr_miss_rate::.cpu.inst     0.999361                       # mshr miss rate for ReadCleanReq accesses
system.l2.ReadCleanReq_mshr_miss_rate::total     0.999361                       # mshr miss rate for ReadCleanReq accesses
system.l2.ReadCleanReq_mshr_misses::.cpu.inst         1563                       # number of ReadCleanReq MSHR misses
system.l2.ReadCleanReq_mshr_misses::total         1563                       # number of ReadCleanReq MSHR misses
system.l2.ReadExReq_accesses::.cpu.data       8290850                       # number of ReadExReq accesses(hits+misses)
system.l2.ReadExReq_accesses::total           8290850                       # number of ReadExReq accesses(hits+misses)
system.l2.ReadExReq_avg_miss_latency::.cpu.data 86732.622931                       # average ReadExReq miss latency
system.l2.ReadExReq_avg_miss_latency::total 86732.622931                       # average ReadExReq miss latency
system.l2.ReadExReq_avg_mshr_miss_latency::.cpu.data 76732.622931                       # average ReadExReq mshr miss latency
system.l2.ReadExReq_avg_mshr_miss_latency::total 76732.622931                       # average ReadExReq mshr miss latency
system.l2.ReadExReq_hits::.cpu.data              1046                       # number of ReadExReq hits
system.l2.ReadExReq_hits::total                  1046                       # number of ReadExReq hits
system.l2.ReadExReq_miss_latency::.cpu.data 718996444500                       # number of ReadExReq miss cycles
system.l2.ReadExReq_miss_latency::total  718996444500                       # number of ReadExReq miss cycles
system.l2.ReadExReq_miss_rate::.cpu.data     0.999874                       # miss rate for ReadExReq accesses
system.l2.ReadExReq_miss_rate::total         0.999874                       # miss rate for ReadExReq accesses
system.l2.ReadExReq_misses::.cpu.data         8289804                       # number of ReadExReq misses
system.l2.ReadExReq_misses::total             8289804                       # number of ReadExReq misses
system.l2.ReadExReq_mshr_miss_latency::.cpu.data 636098404500                       # number of ReadExReq MSHR miss cycles
system.l2.ReadExReq_mshr_miss_latency::total 636098404500                       # number of ReadExReq MSHR miss cycles
system.l2.ReadExReq_mshr_miss_rate::.cpu.data     0.999874                       # mshr miss rate for ReadExReq accesses
system.l2.ReadExReq_mshr_miss_rate::total     0.999874                       # mshr miss rate for ReadExReq accesses
system.l2.ReadExReq_mshr_misses::.cpu.data      8289804                       # number of ReadExReq MSHR misses
system.l2.ReadExReq_mshr_misses::total        8289804                       # number of ReadExReq MSHR misses
system.l2.ReadSharedReq_accesses::.cpu.data         7870                       # number of ReadSharedReq accesses(hits+misses)
system.l2.ReadSharedReq_accesses::total          7870                       # number of ReadSharedReq accesses(hits+misses)
system.l2.ReadSharedReq_avg_miss_latency::.cpu.data 314789.982729                       # average ReadSharedReq miss latency
system.l2.ReadSharedReq_avg_miss_latency::total 314789.982729                       # average ReadSharedReq miss latency
system.l2.ReadSharedReq_avg_mshr_miss_latency::.cpu.data 304789.982729                       # average ReadSharedReq mshr miss latency
system.l2.ReadSharedReq_avg_mshr_miss_latency::total 304789.982729                       # average ReadSharedReq mshr miss latency
system.l2.ReadSharedReq_hits::.cpu.data          2080                       # number of ReadSharedReq hits
system.l2.ReadSharedReq_hits::total              2080                       # number of ReadSharedReq hits
system.l2.ReadSharedReq_miss_latency::.cpu.data   1822634000                       # number of ReadSharedReq miss cycles
system.l2.ReadSharedReq_miss_latency::total   1822634000                       # number of ReadSharedReq miss cycles
system.l2.ReadSharedReq_miss_rate::.cpu.data     0.735705                       # miss rate for ReadSharedReq accesses
system.l2.ReadSharedReq_miss_rate::total     0.735705                       # miss rate for ReadSharedReq accesses
system.l2.ReadSharedReq_misses::.cpu.data         5790                       # number of ReadSharedReq misses
system.l2.ReadSharedReq_misses::total            5790                       # number of ReadSharedReq misses
system.l2.ReadSharedReq_mshr_miss_latency::.cpu.data   1764734000                       # number of ReadSharedReq MSHR miss cycles
system.l2.ReadSharedReq_mshr_miss_latency::total   1764734000                       # number of ReadSharedReq MSHR miss cycles
system.l2.ReadSharedReq_mshr_miss_rate::.cpu.data     0.735705                       # mshr miss rate for ReadSharedReq accesses
system.l2.ReadSharedReq_mshr_miss_rate::total     0.735705                       # mshr miss rate for ReadSharedReq accesses
system.l2.ReadSharedReq_mshr_misses::.cpu.data         5790                       # number of ReadSharedReq MSHR misses
system.l2.ReadSharedReq_mshr_misses::total         5790                       # number of ReadSharedReq MSHR misses
system.l2.WritebackClean_accesses::.writebacks            2                       # number of WritebackClean accesses(hits+misses)
system.l2.WritebackClean_accesses::total            2                       # number of WritebackClean accesses(hits+misses)
system.l2.WritebackClean_hits::.writebacks            2                       # number of WritebackClean hits
system.l2.WritebackClean_hits::total                2                       # number of WritebackClean hits
system.l2.WritebackDirty_accesses::.writebacks      8294555                       # number of WritebackDirty accesses(hits+misses)
system.l2.WritebackDirty_accesses::total      8294555                       # number of WritebackDirty accesses(hits+misses)
system.l2.WritebackDirty_hits::.writebacks      8294555                       # number of WritebackDirty hits
system.l2.WritebackDirty_hits::total          8294555                       # number of WritebackDirty hits
system.l2.avg_blocked_cycles::no_mshrs            nan                       # average number of cycles each access was blocked
system.l2.avg_blocked_cycles::no_targets          nan                       # average number of cycles each access was blocked
system.l2.blocked::no_mshrs                         0                       # number of cycles access was blocked
system.l2.blocked::no_targets                       0                       # number of cycles access was blocked
system.l2.blocked_cycles::no_mshrs                  0                       # number of cycles access was blocked
system.l2.blocked_cycles::no_targets                0                       # number of cycles access was blocked
system.l2.demand_accesses::.cpu.inst             1564                       # number of demand (read+write) accesses
system.l2.demand_accesses::.cpu.data          8298720                       # number of demand (read+write) accesses
system.l2.demand_accesses::total              8300284                       # number of demand (read+write) accesses
system.l2.demand_avg_miss_latency::.cpu.inst 107624.760077                       # average overall miss latency
system.l2.demand_avg_miss_latency::.cpu.data 86891.798044                       # average overall miss latency
system.l2.demand_avg_miss_latency::total 86895.703673                       # average overall miss latency
system.l2.demand_avg_mshr_miss_latency::.cpu.inst 97624.760077                       # average overall mshr miss latency
system.l2.demand_avg_mshr_miss_latency::.cpu.data 76891.798044                       # average overall mshr miss latency
system.l2.demand_avg_mshr_miss_latency::total 76895.703673                       # average overall mshr miss latency
system.l2.demand_hits::.cpu.inst                    1                       # number of demand (read+write) hits
system.l2.demand_hits::.cpu.data                 3126                       # number of demand (read+write) hits
system.l2.demand_hits::total                     3127                       # number of demand (read+write) hits
system.l2.demand_miss_latency::.cpu.inst    168217500                       # number of demand (read+write) miss cycles
system.l2.demand_miss_latency::.cpu.data 720819078500                       # number of demand (read+write) miss cycles
system.l2.demand_miss_latency::total     720987296000                       # number of demand (read+write) miss cycles
system.l2.demand_miss_rate::.cpu.inst        0.999361                       # miss rate for demand accesses
system.l2.demand_miss_rate::.cpu.data        0.999623                       # miss rate for demand accesses
system.l2.demand_miss_rate::total            0.999623                       # miss rate for demand accesses
system.l2.demand_misses::.cpu.inst               1563                       # number of demand (read+write) misses
system.l2.demand_misses::.cpu.data            8295594                       # number of demand (read+write) misses
system.l2.demand_misses::total                8297157                       # number of demand (read+write) misses
system.l2.demand_mshr_miss_latency::.cpu.inst    152587500                       # number of demand (read+write) MSHR miss cycles
system.l2.demand_mshr_miss_latency::.cpu.data 637863138500                       # number of demand (read+write) MSHR miss cycles
system.l2.demand_mshr_miss_latency::total 638015726000                       # number of demand (read+write) MSHR miss cycles
system.l2.demand_mshr_miss_rate::.cpu.inst     0.999361                       # mshr miss rate for demand accesses
system.l2.demand_mshr_miss_rate::.cpu.data     0.999623                       # mshr miss rate for demand accesses
system.l2.demand_mshr_miss_rate::total       0.999623                       # mshr miss rate for demand accesses
system.l2.demand_mshr_misses::.cpu.inst          1563                       # number of demand (read+write) MSHR misses
system.l2.demand_mshr_misses::.cpu.data       8295594                       # number of demand (read+write) MSHR misses
system.l2.demand_mshr_misses::total           8297157                       # number of demand (read+write) MSHR misses
system.l2.overall_accesses::.cpu.inst            1564                       # number of overall (read+write) accesses
system.l2.overall_accesses::.cpu.data         8298720                       # number of overall (read+write) accesses
system.l2.overall_accesses::total             8300284                       # number of overall (read+write) accesses
system.l2.overall_avg_miss_latency::.cpu.inst 107624.760077                       # average overall miss latency
system.l2.overall_avg_miss_latency::.cpu.data 86891.798044                       # average overall miss latency
system.l2.overall_avg_miss_latency::total 86895.703673                       # average overall miss latency
system.l2.overall_avg_mshr_miss_latency::.cpu.inst 97624.760077                       # average overall mshr miss latency
system.l2.overall_avg_mshr_miss_latency::.cpu.data 76891.798044                       # average overall mshr miss latency
system.l2.overall_avg_mshr_miss_latency::total 76895.703673                       # average overall mshr miss latency
system.l2.overall_hits::.cpu.inst                   1                       # number of overall hits
system.l2.overall_hits::.cpu.data                3126                       # number of overall hits
system.l2.overall_hits::total                    3127                       # number of overall hits
system.l2.overall_miss_latency::.cpu.inst    168217500                       # number of overall miss cycles
system.l2.overall_miss_latency::.cpu.data 720819078500                       # number of overall miss cycles
system.l2.overall_miss_latency::total    720987296000                       # number of overall miss cycles
system.l2.overall_miss_rate::.cpu.inst       0.999361                       # miss rate for overall accesses
system.l2.overall_miss_rate::.cpu.data       0.999623                       # miss rate for overall accesses
system.l2.overall_miss_rate::total           0.999623                       # miss rate for overall accesses
system.l2.overall_misses::.cpu.inst              1563                       # number of overall misses
system.l2.overall_misses::.cpu.data           8295594                       # number of overall misses
system.l2.overall_misses::total               8297157                       # number of overall misses
system.l2.overall_mshr_miss_latency::.cpu.inst    152587500                       # number of overall MSHR miss cycles
system.l2.overall_mshr_miss_latency::.cpu.data 637863138500                       # number of overall MSHR miss cycles
system.l2.overall_mshr_miss_latency::total 638015726000                       # number of overall MSHR miss cycles
system.l2.overall_mshr_miss_rate::.cpu.inst     0.999361                       # mshr miss rate for overall accesses
system.l2.overall_mshr_miss_rate::.cpu.data     0.999623                       # mshr miss rate for overall accesses
system.l2.overall_mshr_miss_rate::total      0.999623                       # mshr miss rate for overall accesses
system.l2.overall_mshr_misses::.cpu.inst         1563                       # number of overall MSHR misses
system.l2.overall_mshr_misses::.cpu.data      8295594                       # number of overall MSHR misses
system.l2.overall_mshr_misses::total          8297157                       # number of overall MSHR misses
system.l2.pwrStateResidencyTicks::UNDEFINED 957771650500                       # Cumulative time (in ticks) in various power states
system.l2.replacements                        8283344                       # number of replacements
system.l2.tags.age_task_id_blocks_1024::0            4                       # Occupied blocks per task id
system.l2.tags.age_task_id_blocks_1024::1            3                       # Occupied blocks per task id
system.l2.tags.age_task_id_blocks_1024::2           46                       # Occupied blocks per task id
system.l2.tags.age_task_id_blocks_1024::3          421                       # Occupied blocks per task id
system.l2.tags.age_task_id_blocks_1024::4        15910                       # Occupied blocks per task id
system.l2.tags.avg_refs                      1.999660                       # Average number of references to valid blocks.
system.l2.tags.data_accesses                 24896685                       # Number of data accesses
system.l2.tags.occ_blocks::.writebacks      51.811263                       # Average occupied blocks per requestor
system.l2.tags.occ_blocks::.cpu.inst        43.013926                       # Average occupied blocks per requestor
system.l2.tags.occ_blocks::.cpu.data     16158.904899                       # Average occupied blocks per requestor
system.l2.tags.occ_percent::.writebacks      0.003162                       # Average percentage of cache occupancy
system.l2.tags.occ_percent::.cpu.inst        0.002625                       # Average percentage of cache occupancy
system.l2.tags.occ_percent::.cpu.data        0.986261                       # Average percentage of cache occupancy
system.l2.tags.occ_percent::total            0.992049                       # Average percentage of cache occupancy
system.l2.tags.occ_task_id_blocks::1024         16384                       # Occupied blocks per task id
system.l2.tags.occ_task_id_percent::1024            1                       # Percentage of cache occupancy per task id
system.l2.tags.pwrStateResidencyTicks::UNDEFINED 957771650500                       # Cumulative time (in ticks) in various power states
system.l2.tags.sampled_refs                   8299728                       # Sample count of references to valid blocks.
system.l2.tags.tag_accesses                  24896685                       # Number of tag accesses
system.l2.tags.tagsinuse                 16253.730088                       # Cycle average of tags in use
system.l2.tags.total_refs                    16596634                       # Total number of references to valid blocks.
system.l2.tags.warmup_cycle                     77000                       # Cycle when the warmup percentage was hit.
system.l2.writebacks::.writebacks             8278794                       # number of writebacks
system.l2.writebacks::total                   8278794                       # number of writebacks
system.mem_ctrls.avgBusLat                    5000.00                       # Average bus latency per DRAM burst
system.mem_ctrls.avgGap                      57780.69                       # Average gap between requests
system.mem_ctrls.avgMemAccLat                36137.11                       # Average memory access latency per DRAM burst
system.mem_ctrls.avgPriority_.writebacks::samples   8278793.00                       # Average QoS priority value for accepted requests
system.mem_ctrls.avgPriority_.cpu.inst::samples      1563.00                       # Average QoS priority value for accepted requests
system.mem_ctrls.avgPriority_.cpu.data::samples   8295582.00                       # Average QoS priority value for accepted requests
system.mem_ctrls.avgQLat                     17387.11                       # Average queueing delay per DRAM burst
system.mem_ctrls.avgRdBW                       554.43                       # Average DRAM read bandwidth in MiByte/s
system.mem_ctrls.avgRdBWSys                    554.43                       # Average system read bandwidth in MiByte/s
system.mem_ctrls.avgRdQLen                       1.00                       # Average read queue length when enqueuing
system.mem_ctrls.avgWrBW                       553.20                       # Average achieved write bandwidth in MiByte/s
system.mem_ctrls.avgWrBWSys                    553.20                       # Average system write bandwidth in MiByte/s
system.mem_ctrls.avgWrQLen                      25.71                       # Average write queue length when enqueuing
system.mem_ctrls.busUtil                         8.65                       # Data bus utilization in percentage
system.mem_ctrls.busUtilRead                     4.33                       # Data bus utilization in percentage for reads
system.mem_ctrls.busUtilWrite                    4.32                       # Data bus utilization in percentage for writes
system.mem_ctrls.bw_inst_read::.cpu.inst       104442                       # Instruction read bandwidth from this memory (bytes/s)
system.mem_ctrls.bw_inst_read::total           104442                       # Instruction read bandwidth from this memory (bytes/s)
system.mem_ctrls.bw_read::.cpu.inst            104442                       # Total read bandwidth from this memory (bytes/s)
system.mem_ctrls.bw_read::.cpu.data         554326301                       # Total read bandwidth from this memory (bytes/s)
system.mem_ctrls.bw_read::total             554430743                       # Total read bandwidth from this memory (bytes/s)
system.mem_ctrls.bw_total::.writebacks      553203695                       # Total bandwidth to/from this memory (bytes/s)
system.mem_ctrls.bw_total::.cpu.inst           104442                       # Total bandwidth to/from this memory (bytes/s)
system.mem_ctrls.bw_total::.cpu.data        554326301                       # Total bandwidth to/from this memory (bytes/s)
system.mem_ctrls.bw_total::total           1107634438                       # Total bandwidth to/from this memory (bytes/s)
system.mem_ctrls.bw_write::.writebacks      553203695                       # Write bandwidth from this memory (bytes/s)
system.mem_ctrls.bw_write::total            553203695                       # Write bandwidth from this memory (bytes/s)
system.mem_ctrls.bytesPerActivate::samples      1271254                       # Bytes accessed per row activation
system.mem_ctrls.bytesPerActivate::mean    834.497616                       # Bytes accessed per row activation
system.mem_ctrls.bytesPerActivate::gmean   715.380647                       # Bytes accessed per row activation
system.mem_ctrls.bytesPerActivate::stdev   310.802876                       # Bytes accessed per row activation
system.mem_ctrls.bytesPerActivate::0-127        45374      3.57%      3.57% # Bytes accessed per row activation
system.mem_ctrls.bytesPerActivate::128-255        69698      5.48%      9.05% # Bytes accessed per row activation
system.mem_ctrls.bytesPerActivate::256-383        57741      4.54%     13.59% # Bytes accessed per row activation
system.mem_ctrls.bytesPerActivate::384-511        52848      4.16%     17.75% # Bytes accessed per row activation
system.mem_ctrls.bytesPerActivate::512-639        67693      5.32%     23.08% # Bytes accessed per row activation
system.mem_ctrls.bytesPerActivate::640-767        37468      2.95%     26.02% # Bytes accessed per row activation
system.mem_ctrls.bytesPerActivate::768-895        47769      3.76%     29.78% # Bytes accessed per row activation
system.mem_ctrls.bytesPerActivate::896-1023        65493      5.15%     34.93% # Bytes accessed per row activation
system.mem_ctrls.bytesPerActivate::1024-1151       827170     65.07%    100.00% # Bytes accessed per row activation
system.mem_ctrls.bytesPerActivate::total      1271254                       # Bytes accessed per row activation
system.mem_ctrls.bytesReadDRAM              531017280                       # Total number of bytes read from DRAM
system.mem_ctrls.bytesReadSys               531018048                       # Total read bytes from the system interface side
system.mem_ctrls.bytesReadWrQ                     768                       # Total number of bytes read from write queue
system.mem_ctrls.bytesWritten               529841408                       # Total number of bytes written to DRAM
system.mem_ctrls.bytesWrittenSys            529842816                       # Total written bytes from the system interface side
system.mem_ctrls.bytes_inst_read::.cpu.inst       100032                       # Number of instructions bytes read from this memory
system.mem_ctrls.bytes_inst_read::total        100032                       # Number of instructions bytes read from this memory
system.mem_ctrls.bytes_read::.cpu.inst         100032                       # Number of bytes read from this memory
system.mem_ctrls.bytes_read::.cpu.data      530918016                       # Number of bytes read from this memory
system.mem_ctrls.bytes_read::total          531018048                       # Number of bytes read from this memory
system.mem_ctrls.bytes_written::.writebacks    529842816                       # Number of bytes written to this memory
system.mem_ctrls.bytes_written::total       529842816                       # Number of bytes written to this memory
system.mem_ctrls.masterReadAccesses::.cpu.inst         1563                       # Per-master read serviced memory accesses
system.mem_ctrls.masterReadAccesses::.cpu.data      8295594                       # Per-master read serviced memory accesses
system.mem_ctrls.masterReadAvgLat::.cpu.inst     56795.59                       # Per-master read average memory access latency
system.mem_ctrls.masterReadAvgLat::.cpu.data     36133.17                       # Per-master read average memory access latency
system.mem_ctrls.masterReadBytes::.cpu.inst       100032                       # Per-master bytes read from memory
system.mem_ctrls.masterReadBytes::.cpu.data    530917248                       # Per-master bytes read from memory
system.mem_ctrls.masterReadRate::.cpu.inst 104442.431500012332                       # Per-master bytes read from memory rate (Bytes/sec)
system.mem_ctrls.masterReadRate::.cpu.data 554325498.904501080513                       # Per-master bytes read from memory rate (Bytes/sec)
system.mem_ctrls.masterReadTotalLat::.cpu.inst     88771500                       # Per-master read total memory access latency
system.mem_ctrls.masterReadTotalLat::.cpu.data 299746075753                       # Per-master read total memory access latency
system.mem_ctrls.masterWriteAccesses::.writebacks      8278794                       # Per-master write serviced memory accesses
system.mem_ctrls.masterWriteAvgLat::.writebacks   2830231.48                       # Per-master write average memory access latency
system.mem_ctrls.masterWriteBytes::.writebacks    529841408                       # Per-master bytes write to memory
system.mem_ctrls.masterWriteRate::.writebacks 553202224.897133708000                       # Per-master bytes write to memory rate (Bytes/sec)
system.mem_ctrls.masterWriteTotalLat::.writebacks 23430903408997                       # Per-master write total memory access latency
system.mem_ctrls.mergedWrBursts                     1                       # Number of DRAM write bursts merged with an existing one
system.mem_ctrls.neitherReadNorWriteReqs            0                       # Number of requests that are neither read nor write
system.mem_ctrls.numRdRetry                         0                       # Number of times read queue was full causing retry
system.mem_ctrls.numReadWriteTurnArounds       517153                       # Number of turnarounds from READ to WRITE
system.mem_ctrls.numStayReadState            24484901                       # Number of times bus staying in READ state
system.mem_ctrls.numStayWriteState            7775676                       # Number of times bus staying in WRITE state
system.mem_ctrls.numWrRetry                         0                       # Number of times write queue was full causing retry
system.mem_ctrls.numWriteReadTurnArounds       517153                       # Number of turnarounds from WRITE to READ
system.mem_ctrls.num_reads::.cpu.inst            1563                       # Number of read requests responded to by this memory
system.mem_ctrls.num_reads::.cpu.data         8295594                       # Number of read requests responded to by this memory
system.mem_ctrls.num_reads::total             8297157                       # Number of read requests responded to by this memory
system.mem_ctrls.num_writes::.writebacks      8278794                       # Number of write requests responded to by this memory
system.mem_ctrls.num_writes::total            8278794                       # Number of write requests responded to by this memory
system.mem_ctrls.pageHitRate                    92.33                       # Row buffer hit rate, read and write combined
system.mem_ctrls.peakBW                      12800.00                       # Theoretical peak bandwidth in MiByte/s
system.mem_ctrls.perBankRdBursts::0            518491                       # Per bank write bursts
system.mem_ctrls.perBankRdBursts::1            518435                       # Per bank write bursts
system.mem_ctrls.perBankRdBursts::2            518468                       # Per bank write bursts
system.mem_ctrls.perBankRdBursts::3            518610                       # Per bank write bursts
system.mem_ctrls.perBankRdBursts::4            518761                       # Per bank write bursts
system.mem_ctrls.perBankRdBursts::5            518546                       # Per bank write bursts
system.mem_ctrls.perBankRdBursts::6            518383                       # Per bank write bursts
system.mem_ctrls.perBankRdBursts::7            518372                       # Per bank write bursts
system.mem_ctrls.perBankRdBursts::8            518261                       # Per bank write bursts
system.mem_ctrls.perBankRdBursts::9            518437                       # Per bank write bursts
system.mem_ctrls.perBankRdBursts::10           518601                       # Per bank write bursts
system.mem_ctrls.perBankRdBursts::11           518838                       # Per bank write bursts
system.mem_ctrls.perBankRdBursts::12           518736                       # Per bank write bursts
system.mem_ctrls.perBankRdBursts::13           518754                       # Per bank write bursts
system.mem_ctrls.perBankRdBursts::14           518712                       # Per bank write bursts
system.mem_ctrls.perBankRdBursts::15           518740                       # Per bank write bursts
system.mem_ctrls.perBankWrBursts::0            517319                       # Per bank write bursts
system.mem_ctrls.perBankWrBursts::1            517330                       # Per bank write bursts
system.mem_ctrls.perBankWrBursts::2            517372                       # Per bank write bursts
system.mem_ctrls.perBankWrBursts::3            517418                       # Per bank write bursts
system.mem_ctrls.perBankWrBursts::4            517507                       # Per bank write bursts
system.mem_ctrls.perBankWrBursts::5            517358                       # Per bank write bursts
system.mem_ctrls.perBankWrBursts::6            517252                       # Per bank write bursts
system.mem_ctrls.perBankWrBursts::7            517191                       # Per bank write bursts
system.mem_ctrls.perBankWrBursts::8            517171                       # Per bank write bursts
system.mem_ctrls.perBankWrBursts::9            517288                       # Per bank write bursts
system.mem_ctrls.perBankWrBursts::10           517438                       # Per bank write bursts
system.mem_ctrls.perBankWrBursts::11           517662                       # Per bank write bursts
system.mem_ctrls.perBankWrBursts::12           517609                       # Per bank write bursts
system.mem_ctrls.perBankWrBursts::13           517643                       # Per bank write bursts
system.mem_ctrls.perBankWrBursts::14           517615                       # Per bank write bursts
system.mem_ctrls.perBankWrBursts::15           517599                       # Per bank write bursts
system.mem_ctrls.priorityMaxLatency      0.005220950500                       # per QoS priority maximum request to response latency (s)
system.mem_ctrls.priorityMinLatency      0.000000018750                       # per QoS priority minimum request to response latency (s)
system.mem_ctrls.pwrStateResidencyTicks::UNDEFINED 957771650500                       # Cumulative time (in ticks) in various power states
system.mem_ctrls.rdPerTurnAround::samples       517153                       # Reads before turning the bus around for writes
system.mem_ctrls.rdPerTurnAround::mean      16.043875                       # Reads before turning the bus around for writes
system.mem_ctrls.rdPerTurnAround::gmean     16.011402                       # Reads before turning the bus around for writes
system.mem_ctrls.rdPerTurnAround::stdev     10.503567                       # Reads before turning the bus around for writes
system.mem_ctrls.rdPerTurnAround::0-255        517146    100.00%    100.00% # Reads before turning the bus around for writes
system.mem_ctrls.rdPerTurnAround::256-511            1      0.00%    100.00% # Reads before turning the bus around for writes
system.mem_ctrls.rdPerTurnAround::512-767            1      0.00%    100.00% # Reads before turning the bus around for writes
system.mem_ctrls.rdPerTurnAround::1024-1279            1      0.00%    100.00% # Reads before turning the bus around for writes
system.mem_ctrls.rdPerTurnAround::1792-2047            1      0.00%    100.00% # Reads before turning the bus around for writes
system.mem_ctrls.rdPerTurnAround::2304-2559            1      0.00%    100.00% # Reads before turning the bus around for writes
system.mem_ctrls.rdPerTurnAround::3584-3839            1      0.00%    100.00% # Reads before turning the bus around for writes
system.mem_ctrls.rdPerTurnAround::5376-5631            1      0.00%    100.00% # Reads before turning the bus around for writes
system.mem_ctrls.rdPerTurnAround::total        517153                       # Reads before turning the bus around for writes
system.mem_ctrls.rdQLenPdf::0                 8297144                       # What read queue length does an incoming req see
system.mem_ctrls.rdQLenPdf::1                       1                       # What read queue length does an incoming req see
system.mem_ctrls.rdQLenPdf::2                       0                       # What read queue length does an incoming req see
system.mem_ctrls.rdQLenPdf::3                       0                       # What read queue length does an incoming req see
system.mem_ctrls.rdQLenPdf::4                       0                       # What read queue length does an incoming req see
system.mem_ctrls.rdQLenPdf::5                       0                       # What read queue length does an incoming req see
system.mem_ctrls.rdQLenPdf::6                       0                       # What read queue length does an incoming req see
system.mem_ctrls.rdQLenPdf::7                       0                       # What read queue length does an incoming req see
system.mem_ctrls.rdQLenPdf::8                       0                       # What read queue length does an incoming req see
system.mem_ctrls.rdQLenPdf::9                       0                       # What read queue length does an incoming req see
system.mem_ctrls.rdQLenPdf::10                      0                       # What read queue length does an incoming req see
system.mem_ctrls.rdQLenPdf::11                      0                       # What read queue length does an incoming req see
system.mem_ctrls.rdQLenPdf::12                      0                       # What read queue length does an incoming req see
system.mem_ctrls.rdQLenPdf::13                      0                       # What read queue length does an incoming req see
system.mem_ctrls.rdQLenPdf::14                      0                       # What read queue length does an incoming req see
system.mem_ctrls.rdQLenPdf::15                      0                       # What read queue length does an incoming req see
system.mem_ctrls.rdQLenPdf::16                      0                       # What read queue length does an incoming req see
system.mem_ctrls.rdQLenPdf::17                      0                       # What read queue length does an incoming req see
system.mem_ctrls.rdQLenPdf::18                      0                       # What read queue length does an incoming req see
system.mem_ctrls.rdQLenPdf::19                      0                       # What read queue length does an incoming req see
system.mem_ctrls.rdQLenPdf::20                      0                       # What read queue length does an incoming req see
system.mem_ctrls.rdQLenPdf::21                      0                       # What read queue length does an incoming req see
system.mem_ctrls.rdQLenPdf::22                      0                       # What read queue length does an incoming req see
system.mem_ctrls.rdQLenPdf::23                      0                       # What read queue length does an incoming req see
system.mem_ctrls.rdQLenPdf::24                      0                       # What read queue length does an incoming req see
system.mem_ctrls.rdQLenPdf::25                      0                       # What read queue length does an incoming req see
system.mem_ctrls.rdQLenPdf::26                      0                       # What read queue length does an incoming req see
system.mem_ctrls.rdQLenPdf::27                      0                       # What read queue length does an incoming req see
system.mem_ctrls.rdQLenPdf::28                      0                       # What read queue length does an incoming req see
system.mem_ctrls.rdQLenPdf::29                      0                       # What read queue length does an incoming req see
system.mem_ctrls.rdQLenPdf::30                      0                       # What read queue length does an incoming req see
system.mem_ctrls.rdQLenPdf::31                      0                       # What read queue length does an incoming req see
system.mem_ctrls.readBursts                   8297157                       # Number of DRAM read bursts, including those serviced by the write queue
system.mem_ctrls.readPktSize::0                     0                       # Read request sizes (log2)
system.mem_ctrls.readPktSize::1                     0                       # Read request sizes (log2)
system.mem_ctrls.readPktSize::2                     0                       # Read request sizes (log2)
system.mem_ctrls.readPktSize::3                     0                       # Read request sizes (log2)
system.mem_ctrls.readPktSize::4                     0                       # Read request sizes (log2)
system.mem_ctrls.readPktSize::5                     0                       # Read request sizes (log2)
system.mem_ctrls.readPktSize::6               8297157                       # Read request sizes (log2)
system.mem_ctrls.readReqs                     8297157                       # Number of read requests accepted
system.mem_ctrls.readRowHitRate                 91.73                       # Row buffer hit rate for reads
system.mem_ctrls.readRowHits                  7610605                       # Number of row buffer hits during reads
system.mem_ctrls.servicedByWrQ                     12                       # Number of DRAM read bursts serviced by the write queue
system.mem_ctrls.totBusLat                41485725000                       # Total ticks spent in databus transfers
system.mem_ctrls.totGap                  957769873500                       # Total gap between requests
system.mem_ctrls.totMemAccLat            299834847253                       # Total ticks spent from burst creation until serviced by the DRAM
system.mem_ctrls.totQLat                 144263378503                       # Total ticks spent queuing
system.mem_ctrls.wrPerTurnAround::samples       517153                       # Writes before turning the bus around for reads
system.mem_ctrls.wrPerTurnAround::mean      16.008361                       # Writes before turning the bus around for reads
[...]
system.mem_ctrls.wrQLenPdf::26                 517153                       # What write queue length does an incoming req see
system.mem_ctrls.wrQLenPdf::27                 517153                       # What write queue length does an incoming req see
system.mem_ctrls.wrQLenPdf::28                 517154                       # What write queue length does an incoming req see
system.mem_ctrls.wrQLenPdf::29                 517153                       # What write queue length does an incoming req see
system.mem_ctrls.wrQLenPdf::30                 517194                       # What write queue length does an incoming req see
system.mem_ctrls.wrQLenPdf::31                 517154                       # What write queue length does an incoming req see
system.mem_ctrls.wrQLenPdf::32                 517154                       # What write queue length does an incoming req see
system.mem_ctrls.wrQLenPdf::33                      0                       # What write queue length does an incoming req see
system.mem_ctrls.wrQLenPdf::34                      0                       # What write queue length does an incoming req see
system.mem_ctrls.wrQLenPdf::35                      0                       # What write queue length does an incoming req see
system.mem_ctrls.wrQLenPdf::36                      0                       # What write queue length does an incoming req see
system.mem_ctrls.wrQLenPdf::37                      0                       # What write queue length does an incoming req see
system.mem_ctrls.wrQLenPdf::38                      0                       # What write queue length does an incoming req see
system.mem_ctrls.wrQLenPdf::39                      0                       # What write queue length does an incoming req see
system.mem_ctrls.wrQLenPdf::40                      0                       # What write queue length does an incoming req see
system.mem_ctrls.wrQLenPdf::41                      0                       # What write queue length does an incoming req see
system.mem_ctrls.wrQLenPdf::42                      0                       # What write queue length does an incoming req see
system.mem_ctrls.wrQLenPdf::43                      0                       # What write queue length does an incoming req see
system.mem_ctrls.wrQLenPdf::44                      0                       # What write queue length does an incoming req see
system.mem_ctrls.wrQLenPdf::45                      0                       # What write queue length does an incoming req see
system.mem_ctrls.wrQLenPdf::46                      0                       # What write queue length does an incoming req see
system.mem_ctrls.wrQLenPdf::47                      0                       # What write queue length does an incoming req see
system.mem_ctrls.wrQLenPdf::48                      0                       # What write queue length does an incoming req see
system.mem_ctrls.wrQLenPdf::49                      0                       # What write queue length does an incoming req see
system.mem_ctrls.wrQLenPdf::50                      0                       # What write queue length does an incoming req see
system.mem_ctrls.wrQLenPdf::51                      0                       # What write queue length does an incoming req see
system.mem_ctrls.wrQLenPdf::52                      0                       # What write queue length does an incoming req see
system.mem_ctrls.wrQLenPdf::53                      0                       # What write queue length does an incoming req see
system.mem_ctrls.wrQLenPdf::54                      0                       # What write queue length does an incoming req see
system.mem_ctrls.wrQLenPdf::55                      0                       # What write queue length does an incoming req see
system.mem_ctrls.wrQLenPdf::56                      0                       # What write queue length does an incoming req see
system.mem_ctrls.wrQLenPdf::57                      0                       # What write queue length does an incoming req see
system.mem_ctrls.wrQLenPdf::58                      0                       # What write queue length does an incoming req see
system.mem_ctrls.wrQLenPdf::59                      0                       # What write queue length does an incoming req see
system.mem_ctrls.wrQLenPdf::60                      0                       # What write queue length does an incoming req see
system.mem_ctrls.wrQLenPdf::61                      0                       # What write queue length does an incoming req see
system.mem_ctrls.wrQLenPdf::62                      0                       # What write queue length does an incoming req see
system.mem_ctrls.wrQLenPdf::63                      0                       # What write queue length does an incoming req see
system.mem_ctrls.writeBursts                  8278794                       # Number of DRAM write bursts, including those merged in the write queue
system.mem_ctrls.writePktSize::0                    0                       # Write request sizes (log2)
system.mem_ctrls.writePktSize::1                    0                       # Write request sizes (log2)
system.mem_ctrls.writePktSize::2                    0                       # Write request sizes (log2)
system.mem_ctrls.writePktSize::3                    0                       # Write request sizes (log2)
system.mem_ctrls.writePktSize::4                    0                       # Write request sizes (log2)
system.mem_ctrls.writePktSize::5                    0                       # Write request sizes (log2)
system.mem_ctrls.writePktSize::6              8278794                       # Write request sizes (log2)
system.mem_ctrls.writeReqs                    8278794                       # Number of write requests accepted
system.mem_ctrls.writeRowHitRate                92.94                       # Row buffer hit rate for writes
system.mem_ctrls.writeRowHits                 7694054                       # Number of row buffer hits during writes
system.mem_ctrls_0.actBackEnergy          81731882760                       # Energy for active background per rank (pJ)
system.mem_ctrls_0.actEnergy               4538219700                       # Energy for activate commands per rank (pJ)
system.mem_ctrls_0.actPowerDownEnergy    131790330990                       # Energy for active power-down per rank (pJ)
system.mem_ctrls_0.averagePower            463.989548                       # Core power per rank (mW)
system.mem_ctrls_0.memoryStateTime::IDLE   4230625750                       # Time in different power states
system.mem_ctrls_0.memoryStateTime::REF   17845100000                       # Time in different power states
system.mem_ctrls_0.memoryStateTime::SREF 421726505250                       # Time in different power states
system.mem_ctrls_0.memoryStateTime::PRE_PDN  57038957498                       # Time in different power states
system.mem_ctrls_0.memoryStateTime::ACT  167891254244                       # Time in different power states
system.mem_ctrls_0.memoryStateTime::ACT_PDN 289039207758                       # Time in different power states
system.mem_ctrls_0.preBackEnergy           4127238240                       # Energy for precharge background per rank (pJ)
system.mem_ctrls_0.preEnergy               2412117180                       # Energy for precharge commands per rank (pJ)
system.mem_ctrls_0.prePowerDownEnergy     21902564160                       # Energy for precharge power-down per rank (pJ)
system.mem_ctrls_0.readEnergy             29617191240                       # Energy for read commands per rank (pJ)
system.mem_ctrls_0.refreshEnergy         42185816400.000008                       # Energy for refresh commands per rank (pJ)
system.mem_ctrls_0.selfRefreshEnergy     104482404660                       # Energy for self refresh per rank (pJ)
system.mem_ctrls_0.totalEnergy           444396035400                       # Total energy per rank (pJ)
system.mem_ctrls_0.totalIdleTime         767801357756                       # Total Idle time Per DRAM Rank
system.mem_ctrls_0.writeEnergy            21604259340                       # Energy for write commands per rank (pJ)
system.mem_ctrls_1.actBackEnergy          81822939120                       # Energy for active background per rank (pJ)
system.mem_ctrls_1.actEnergy               4538562420                       # Energy for activate commands per rank (pJ)
system.mem_ctrls_1.actPowerDownEnergy    131475378630                       # Energy for active power-down per rank (pJ)
system.mem_ctrls_1.averagePower            463.721016                       # Core power per rank (mW)
system.mem_ctrls_1.memoryStateTime::IDLE   4203812750                       # Time in different power states
system.mem_ctrls_1.memoryStateTime::REF   17816240000                       # Time in different power states
system.mem_ctrls_1.memoryStateTime::SREF 422611845000                       # Time in different power states
system.mem_ctrls_1.memoryStateTime::PRE_PDN  56708874000                       # Time in different power states
system.mem_ctrls_1.memoryStateTime::ACT  168004345494                       # Time in different power states
system.mem_ctrls_1.memoryStateTime::ACT_PDN 288426533256                       # Time in different power states
system.mem_ctrls_1.preBackEnergy           4103876640                       # Energy for precharge background per rank (pJ)
system.mem_ctrls_1.preEnergy               2412291750                       # Energy for precharge commands per rank (pJ)
system.mem_ctrls_1.prePowerDownEnergy     21774103680                       # Energy for precharge power-down per rank (pJ)
system.mem_ctrls_1.readEnergy             29624424060                       # Energy for read commands per rank (pJ)
system.mem_ctrls_1.refreshEnergy         42117591360.000008                       # Energy for refresh commands per rank (pJ)
system.mem_ctrls_1.selfRefreshEnergy     104654267700                       # Energy for self refresh per rank (pJ)
system.mem_ctrls_1.totalEnergy           444138842490                       # Total energy per rank (pJ)
system.mem_ctrls_1.totalIdleTime         767745446256                       # Total Idle time Per DRAM Rank
system.mem_ctrls_1.writeEnergy            21610930500                       # Energy for write commands per rank (pJ)
system.membus.pkt_count_system.l2.mem_side::system.mem_ctrls.port     24873732                       # Packet count per connected master and slave (bytes)
system.membus.pkt_count_system.l2.mem_side::total     24873732                       # Packet count per connected master and slave (bytes)
system.membus.pkt_count::total               24873732                       # Packet count per connected master and slave (bytes)
system.membus.pkt_size_system.l2.mem_side::system.mem_ctrls.port   1060860864                       # Cumulative packet size per connected master and slave (bytes)
system.membus.pkt_size_system.l2.mem_side::total   1060860864                       # Cumulative packet size per connected master and slave (bytes)
system.membus.pkt_size::total              1060860864                       # Cumulative packet size per connected master and slave (bytes)
system.membus.pwrStateResidencyTicks::UNDEFINED 957771650500                       # Cumulative time (in ticks) in various power states
system.membus.reqLayer2.occupancy         49691841337                       # Layer occupancy (ticks)
system.membus.reqLayer2.utilization               5.2                       # Layer utilization (%)
system.membus.respLayer1.occupancy        43631914997                       # Layer occupancy (ticks)
system.membus.respLayer1.utilization              4.6                       # Layer utilization (%)
system.membus.snoopTraffic                          0                       # Total snoop traffic (bytes)
system.membus.snoop_fanout::samples           8297157                       # Request fanout histogram
system.membus.snoop_fanout::mean                    0                       # Request fanout histogram
system.membus.snoop_fanout::stdev                   0                       # Request fanout histogram
system.membus.snoop_fanout::underflows              0      0.00%      0.00% # Request fanout histogram
system.membus.snoop_fanout::0                 8297157    100.00%    100.00% # Request fanout histogram
system.membus.snoop_fanout::1                       0      0.00%    100.00% # Request fanout histogram
system.membus.snoop_fanout::overflows               0      0.00%    100.00% # Request fanout histogram
system.membus.snoop_fanout::min_value               0                       # Request fanout histogram
system.membus.snoop_fanout::max_value               0                       # Request fanout histogram
system.membus.snoop_fanout::total             8297157                       # Request fanout histogram
system.membus.snoop_filter.hit_multi_requests            0                       # Number of requests hitting in the snoop filter with multiple (>1) holders of the requested data.
system.membus.snoop_filter.hit_multi_snoops            0                       # Number of snoops hitting in the snoop filter with multiple (>1) holders of the requested data.
system.membus.snoop_filter.hit_single_requests      8279418                       # Number of requests hitting in the snoop filter with a single holder of the requested data.
system.membus.snoop_filter.hit_single_snoops            0                       # Number of snoops hitting in the snoop filter with a single holder of the requested data.
system.membus.snoop_filter.tot_requests      16576575                       # Total number of requests made to the snoop filter.
system.membus.snoop_filter.tot_snoops               0                       # Total number of snoops made to the snoop filter.
system.membus.snoops                                0                       # Total snoops (count)
system.membus.trans_dist::ReadResp               7353                       # Transaction distribution
system.membus.trans_dist::WritebackDirty      8278794                       # Transaction distribution
system.membus.trans_dist::CleanEvict              624                       # Transaction distribution
system.membus.trans_dist::ReadExReq           8289804                       # Transaction distribution
system.membus.trans_dist::ReadExResp          8289804                       # Transaction distribution
system.membus.trans_dist::ReadSharedReq          7353                       # Transaction distribution
system.pwrStateResidencyTicks::UNDEFINED 957771650500                       # Cumulative time (in ticks) in various power states
system.tol2bus.pkt_count_system.cpu.icache.mem_side::system.l2.cpu_side         3130                       # Packet count per connected master and slave (bytes)
system.tol2bus.pkt_count_system.cpu.dcache.mem_side::system.l2.cpu_side     24894112                       # Packet count per connected master and slave (bytes)
system.tol2bus.pkt_count::total              24897242                       # Packet count per connected master and slave (bytes)
system.tol2bus.pkt_size_system.cpu.icache.mem_side::system.l2.cpu_side       100224                       # Cumulative packet size per connected master and slave (bytes)
system.tol2bus.pkt_size_system.cpu.dcache.mem_side::system.l2.cpu_side   1061969600                       # Cumulative packet size per connected master and slave (bytes)
system.tol2bus.pkt_size::total             1062069824                       # Cumulative packet size per connected master and slave (bytes)
system.tol2bus.pwrStateResidencyTicks::UNDEFINED 957771650500                       # Cumulative time (in ticks) in various power states
system.tol2bus.reqLayer0.occupancy        16593036000                       # Layer occupancy (ticks)
system.tol2bus.reqLayer0.utilization              1.7                       # Layer utilization (%)
system.tol2bus.respLayer0.occupancy           2346000                       # Layer occupancy (ticks)
system.tol2bus.respLayer0.utilization             0.0                       # Layer utilization (%)
system.tol2bus.respLayer1.occupancy       12448080000                       # Layer occupancy (ticks)
system.tol2bus.respLayer1.utilization             1.3                       # Layer utilization (%)
system.tol2bus.snoopTraffic                 529842816                       # Total snoop traffic (bytes)
system.tol2bus.snoop_fanout::samples         16583628                       # Request fanout histogram
system.tol2bus.snoop_fanout::mean            0.000256                       # Request fanout histogram
system.tol2bus.snoop_fanout::stdev           0.016012                       # Request fanout histogram
system.tol2bus.snoop_fanout::underflows             0      0.00%      0.00% # Request fanout histogram
system.tol2bus.snoop_fanout::0               16579378     99.97%     99.97% # Request fanout histogram
system.tol2bus.snoop_fanout::1                   4249      0.03%    100.00% # Request fanout histogram
system.tol2bus.snoop_fanout::2                      1      0.00%    100.00% # Request fanout histogram
system.tol2bus.snoop_fanout::3                      0      0.00%    100.00% # Request fanout histogram
system.tol2bus.snoop_fanout::4                      0      0.00%    100.00% # Request fanout histogram
system.tol2bus.snoop_fanout::overflows              0      0.00%    100.00% # Request fanout histogram
system.tol2bus.snoop_fanout::min_value              0                       # Request fanout histogram
system.tol2bus.snoop_fanout::max_value              2                       # Request fanout histogram
system.tol2bus.snoop_fanout::total           16583628                       # Request fanout histogram
system.tol2bus.snoop_filter.hit_multi_requests            1                       # Number of requests hitting in the snoop filter with multiple (>1) holders of the requested data.
system.tol2bus.snoop_filter.hit_multi_snoops            1                       # Number of snoops hitting in the snoop filter with multiple (>1) holders of the requested data.
system.tol2bus.snoop_filter.hit_single_requests      8296674                       # Number of requests hitting in the snoop filter with a single holder of the requested data.
system.tol2bus.snoop_filter.hit_single_snoops         4248                       # Number of snoops hitting in the snoop filter with a single holder of the requested data.
system.tol2bus.snoop_filter.tot_requests     16596958                       # Total number of requests made to the snoop filter.
system.tol2bus.snoop_filter.tot_snoops           4249                       # Total number of snoops made to the snoop filter.
system.tol2bus.snoops                         8283344                       # Total snoops (count)
system.tol2bus.trans_dist::ReadResp              9434                       # Transaction distribution
system.tol2bus.trans_dist::WritebackDirty     16573349                       # Transaction distribution
system.tol2bus.trans_dist::WritebackClean            2                       # Transaction distribution
system.tol2bus.trans_dist::CleanEvict            6667                       # Transaction distribution
system.tol2bus.trans_dist::ReadExReq          8290850                       # Transaction distribution
system.tol2bus.trans_dist::ReadExResp         8290850                       # Transaction distribution
system.tol2bus.trans_dist::ReadCleanReq          1564                       # Transaction distribution
system.tol2bus.trans_dist::ReadSharedReq         7870                       # Transaction distribution
system.voltage_domain.voltage                       1                       # Voltage in Volts

---------- End Simulation Statistics   ----------
